!- NOTE: Auto-generated from /test/osw_files/SFD_2story_FB_UA_GRG_GSHP_ElecTanklessWH.osw

OS:Version,
  {c9da6a68-b548-4aea-81d4-938424ee6dac}, !- Handle
  2.7.0;                                  !- Version Identifier

OS:SimulationControl,
  {c4afc967-b521-467c-9805-05deb7245538}, !- Handle
  ,                                       !- Do Zone Sizing Calculation
  ,                                       !- Do System Sizing Calculation
  ,                                       !- Do Plant Sizing Calculation
  No;                                     !- Run Simulation for Sizing Periods

OS:Timestep,
  {9eddd2ed-5e8d-4abf-9afe-e91a921e4820}, !- Handle
  6;                                      !- Number of Timesteps per Hour

OS:ShadowCalculation,
  {af0f9661-9200-4bd8-ad2c-c872f69f816b}, !- Handle
  20,                                     !- Calculation Frequency
  200;                                    !- Maximum Figures in Shadow Overlap Calculations

OS:SurfaceConvectionAlgorithm:Outside,
  {83c484f3-85bc-4eec-b427-1c7c553c00cd}, !- Handle
  DOE-2;                                  !- Algorithm

OS:SurfaceConvectionAlgorithm:Inside,
  {4a65684f-3136-480d-ac1c-b3900f83afb3}, !- Handle
  TARP;                                   !- Algorithm

OS:ZoneCapacitanceMultiplier:ResearchSpecial,
  {d27badb1-e706-49e0-a764-54076c95758c}, !- Handle
  ,                                       !- Temperature Capacity Multiplier
  15,                                     !- Humidity Capacity Multiplier
  ;                                       !- Carbon Dioxide Capacity Multiplier

OS:RunPeriod,
  {123bfdc4-8611-4ade-b0bd-da10081e7c24}, !- Handle
  Run Period 1,                           !- Name
  1,                                      !- Begin Month
  1,                                      !- Begin Day of Month
  12,                                     !- End Month
  31,                                     !- End Day of Month
  ,                                       !- Use Weather File Holidays and Special Days
  ,                                       !- Use Weather File Daylight Saving Period
  ,                                       !- Apply Weekend Holiday Rule
  ,                                       !- Use Weather File Rain Indicators
  ,                                       !- Use Weather File Snow Indicators
  ;                                       !- Number of Times Runperiod to be Repeated

OS:WeatherFile,
  {42bf9b66-7b31-415e-9d3a-2f2212c62500}, !- Handle
  Denver Intl Ap,                         !- City
  CO,                                     !- State Province Region
  USA,                                    !- Country
  TMY3,                                   !- Data Source
  725650,                                 !- WMO Number
  39.83,                                  !- Latitude {deg}
  -104.65,                                !- Longitude {deg}
  -7,                                     !- Time Zone {hr}
  1650,                                   !- Elevation {m}
  file:../tests/USA_CO_Denver_Intl_AP_725650_TMY3.epw, !- Url
  E23378AA;                               !- Checksum

OS:AdditionalProperties,
  {0d6682aa-1823-4fcb-91ea-7c533a6e9fe5}, !- Handle
  {42bf9b66-7b31-415e-9d3a-2f2212c62500}, !- Object Name
  EPWHeaderCity,                          !- Feature Name 1
  String,                                 !- Feature Data Type 1
  Denver Intl Ap,                         !- Feature Value 1
  EPWHeaderState,                         !- Feature Name 2
  String,                                 !- Feature Data Type 2
  CO,                                     !- Feature Value 2
  EPWHeaderCountry,                       !- Feature Name 3
  String,                                 !- Feature Data Type 3
  USA,                                    !- Feature Value 3
  EPWHeaderDataSource,                    !- Feature Name 4
  String,                                 !- Feature Data Type 4
  TMY3,                                   !- Feature Value 4
  EPWHeaderStation,                       !- Feature Name 5
  String,                                 !- Feature Data Type 5
  725650,                                 !- Feature Value 5
  EPWHeaderLatitude,                      !- Feature Name 6
  Double,                                 !- Feature Data Type 6
  39.829999999999998,                     !- Feature Value 6
  EPWHeaderLongitude,                     !- Feature Name 7
  Double,                                 !- Feature Data Type 7
  -104.65000000000001,                    !- Feature Value 7
  EPWHeaderTimezone,                      !- Feature Name 8
  Double,                                 !- Feature Data Type 8
  -7,                                     !- Feature Value 8
  EPWHeaderAltitude,                      !- Feature Name 9
  Double,                                 !- Feature Data Type 9
  5413.3858267716532,                     !- Feature Value 9
  EPWHeaderLocalPressure,                 !- Feature Name 10
  Double,                                 !- Feature Data Type 10
  0.81937567683596546,                    !- Feature Value 10
  EPWHeaderRecordsPerHour,                !- Feature Name 11
  Double,                                 !- Feature Data Type 11
  1,                                      !- Feature Value 11
  EPWDataAnnualAvgDrybulb,                !- Feature Name 12
  Double,                                 !- Feature Data Type 12
  51.575616438356228,                     !- Feature Value 12
  EPWDataAnnualMinDrybulb,                !- Feature Name 13
  Double,                                 !- Feature Data Type 13
  -2.9200000000000017,                    !- Feature Value 13
  EPWDataAnnualMaxDrybulb,                !- Feature Name 14
  Double,                                 !- Feature Data Type 14
  104,                                    !- Feature Value 14
  EPWDataCDD50F,                          !- Feature Name 15
  Double,                                 !- Feature Data Type 15
  3072.2925000000005,                     !- Feature Value 15
  EPWDataCDD65F,                          !- Feature Name 16
  Double,                                 !- Feature Data Type 16
  883.62000000000035,                     !- Feature Value 16
  EPWDataHDD50F,                          !- Feature Name 17
  Double,                                 !- Feature Data Type 17
  2497.1925000000001,                     !- Feature Value 17
  EPWDataHDD65F,                          !- Feature Name 18
  Double,                                 !- Feature Data Type 18
  5783.5200000000013,                     !- Feature Value 18
  EPWDataAnnualAvgWindspeed,              !- Feature Name 19
  Double,                                 !- Feature Data Type 19
  3.9165296803649667,                     !- Feature Value 19
  EPWDataMonthlyAvgDrybulbs,              !- Feature Name 20
  String,                                 !- Feature Data Type 20
  33.4191935483871&#4431.90142857142857&#4443.02620967741937&#4442.48624999999999&#4459.877741935483854&#4473.57574999999997&#4472.07975806451608&#4472.70008064516134&#4466.49200000000006&#4450.079112903225806&#4437.218250000000005&#4434.582177419354835, !- Feature Value 20
  EPWDataGroundMonthlyTemps,              !- Feature Name 21
  String,                                 !- Feature Data Type 21
  44.08306285945173&#4440.89570904991865&#4440.64045432632048&#4442.153016571250646&#4448.225111118704206&#4454.268919273837525&#4459.508577937551024&#4462.82777283423508&#4463.10975667174995&#4460.41014950381947&#4455.304105212311526&#4449.445696474514364, !- Feature Value 21
  EPWDataWSF,                             !- Feature Name 22
  Double,                                 !- Feature Data Type 22
  0.58999999999999997,                    !- Feature Value 22
  EPWDataMonthlyAvgDailyHighDrybulbs,     !- Feature Name 23
  String,                                 !- Feature Data Type 23
  47.41032258064516&#4446.58642857142857&#4455.15032258064517&#4453.708&#4472.80193548387098&#4488.67600000000002&#4486.1858064516129&#4485.87225806451613&#4482.082&#4463.18064516129033&#4448.73400000000001&#4448.87935483870968, !- Feature Value 23
  EPWDataMonthlyAvgDailyLowDrybulbs,      !- Feature Name 24
  String,                                 !- Feature Data Type 24
  19.347741935483874&#4419.856428571428573&#4430.316129032258065&#4431.112&#4447.41612903225806&#4457.901999999999994&#4459.063870967741934&#4460.956774193548384&#4452.352000000000004&#4438.41612903225806&#4427.002000000000002&#4423.02903225806451, !- Feature Value 24
  EPWDesignHeatingDrybulb,                !- Feature Name 25
  Double,                                 !- Feature Data Type 25
  6.8000000000000007,                     !- Feature Value 25
  EPWDesignHeatingWindspeed,              !- Feature Name 26
  Double,                                 !- Feature Data Type 26
  12,                                     !- Feature Value 26
  EPWDesignCoolingDrybulb,                !- Feature Name 27
  Double,                                 !- Feature Data Type 27
  91.760000000000005,                     !- Feature Value 27
  EPWDesignCoolingWetbulb,                !- Feature Name 28
  Double,                                 !- Feature Data Type 28
  60.079999999999998,                     !- Feature Value 28
  EPWDesignCoolingHumidityRatio,          !- Feature Name 29
  Double,                                 !- Feature Data Type 29
  0.006050392196571398,                   !- Feature Value 29
  EPWDesignCoolingWindspeed,              !- Feature Name 30
  Double,                                 !- Feature Data Type 30
  4.2000000000000002,                     !- Feature Value 30
  EPWDesignDailyTemperatureRange,         !- Feature Name 31
  Double,                                 !- Feature Data Type 31
  27.359999999999999,                     !- Feature Value 31
  EPWDesignDehumidDrybulb,                !- Feature Name 32
  Double,                                 !- Feature Data Type 32
  67.280000000000001,                     !- Feature Value 32
  EPWDesignDehumidHumidityRatio,          !- Feature Name 33
  Double,                                 !- Feature Data Type 33
  0.012295426899271008,                   !- Feature Value 33
  EPWDesignCoolingDirectNormal,           !- Feature Name 34
  Double,                                 !- Feature Data Type 34
  985,                                    !- Feature Value 34
  EPWDesignCoolingDiffuseHorizontal,      !- Feature Name 35
  Double,                                 !- Feature Data Type 35
  84;                                     !- Feature Value 35

OS:YearDescription,
  {6006c4b9-92a8-42da-843b-1f314bf15730}, !- Handle
  ,                                       !- Calendar Year
  Monday;                                 !- Day of Week for Start Day

OS:Site,
  {a872e93e-51bc-4fa2-a6fc-81eda559d675}, !- Handle
  Denver Intl Ap_CO_USA,                  !- Name
  39.83,                                  !- Latitude {deg}
  -104.65,                                !- Longitude {deg}
  -7,                                     !- Time Zone {hr}
  1650,                                   !- Elevation {m}
  Suburbs;                                !- Terrain

OS:ClimateZones,
  {c1826f26-3129-44e2-b45d-3112f18d2da7}, !- Handle
  ,                                       !- Active Institution
  ,                                       !- Active Year
  ,                                       !- Climate Zone Institution Name 1
  ,                                       !- Climate Zone Document Name 1
  ,                                       !- Climate Zone Document Year 1
  ,                                       !- Climate Zone Value 1
  Building America,                       !- Climate Zone Institution Name 2
  ,                                       !- Climate Zone Document Name 2
  0,                                      !- Climate Zone Document Year 2
  Cold;                                   !- Climate Zone Value 2

OS:Site:WaterMainsTemperature,
  {ea671898-5e5a-4ad4-828a-cc0619d6cacd}, !- Handle
  Correlation,                            !- Calculation Method
  ,                                       !- Temperature Schedule Name
  10.8753424657535,                       !- Annual Average Outdoor Air Temperature {C}
  23.1524007936508;                       !- Maximum Difference In Monthly Average Outdoor Air Temperatures {deltaC}

OS:RunPeriodControl:DaylightSavingTime,
  {e9a9ecce-3a71-49ad-a436-e7b87ca27a26}, !- Handle
  4/7,                                    !- Start Date
  10/26;                                  !- End Date

OS:Site:GroundTemperature:Deep,
  {628e9204-b6b6-4d93-8c0d-7ec38df5cb58}, !- Handle
  10.8753424657535,                       !- January Deep Ground Temperature {C}
  10.8753424657535,                       !- February Deep Ground Temperature {C}
  10.8753424657535,                       !- March Deep Ground Temperature {C}
  10.8753424657535,                       !- April Deep Ground Temperature {C}
  10.8753424657535,                       !- May Deep Ground Temperature {C}
  10.8753424657535,                       !- June Deep Ground Temperature {C}
  10.8753424657535,                       !- July Deep Ground Temperature {C}
  10.8753424657535,                       !- August Deep Ground Temperature {C}
  10.8753424657535,                       !- September Deep Ground Temperature {C}
  10.8753424657535,                       !- October Deep Ground Temperature {C}
  10.8753424657535,                       !- November Deep Ground Temperature {C}
  10.8753424657535;                       !- December Deep Ground Temperature {C}

OS:ThermalZone,
  {2ca9cb02-0d3b-4b74-b140-4775c92b9733}, !- Handle
  living zone,                            !- Name
  ,                                       !- Multiplier
  ,                                       !- Ceiling Height {m}
  ,                                       !- Volume {m3}
  ,                                       !- Floor Area {m2}
  ,                                       !- Zone Inside Convection Algorithm
  ,                                       !- Zone Outside Convection Algorithm
  ,                                       !- Zone Conditioning Equipment List Name
  {de55ff08-b145-40f2-8d35-859570aefec2}, !- Zone Air Inlet Port List
  {de00f937-0d4a-4cf5-b9c5-093770734552}, !- Zone Air Exhaust Port List
  {b0e7f728-0e55-471f-a5fb-8231f84f8bfa}, !- Zone Air Node Name
  {57d3b288-345b-4832-8c1b-94875e6d193a}, !- Zone Return Air Port List
  ,                                       !- Primary Daylighting Control Name
  ,                                       !- Fraction of Zone Controlled by Primary Daylighting Control
  ,                                       !- Secondary Daylighting Control Name
  ,                                       !- Fraction of Zone Controlled by Secondary Daylighting Control
  ,                                       !- Illuminance Map Name
  ,                                       !- Group Rendering Name
  {67ed5c42-1e80-4df2-94ab-98a745f506e2}, !- Thermostat Name
  No;                                     !- Use Ideal Air Loads

OS:Node,
  {56206441-557b-4f81-9167-a26c9d6fc392}, !- Handle
  Node 1,                                 !- Name
  {b0e7f728-0e55-471f-a5fb-8231f84f8bfa}, !- Inlet Port
  ;                                       !- Outlet Port

OS:Connection,
  {b0e7f728-0e55-471f-a5fb-8231f84f8bfa}, !- Handle
  {b971f312-c7ce-4558-a683-b845c415505f}, !- Name
  {2ca9cb02-0d3b-4b74-b140-4775c92b9733}, !- Source Object
  11,                                     !- Outlet Port
  {56206441-557b-4f81-9167-a26c9d6fc392}, !- Target Object
  2;                                      !- Inlet Port

OS:PortList,
  {de55ff08-b145-40f2-8d35-859570aefec2}, !- Handle
  {00c10689-d990-446f-97a6-33dc51fcad9c}, !- Name
  {2ca9cb02-0d3b-4b74-b140-4775c92b9733}, !- HVAC Component
  {8843672e-3084-448a-9a2c-543a290ce3e6}; !- Port 1

OS:PortList,
  {de00f937-0d4a-4cf5-b9c5-093770734552}, !- Handle
  {1ed90632-9b1f-4047-8ec5-ede5ffedcd01}, !- Name
  {2ca9cb02-0d3b-4b74-b140-4775c92b9733}; !- HVAC Component

OS:PortList,
  {57d3b288-345b-4832-8c1b-94875e6d193a}, !- Handle
  {a921a2c8-a2ec-49df-b1be-c3dc84d0328d}, !- Name
  {2ca9cb02-0d3b-4b74-b140-4775c92b9733}, !- HVAC Component
  {e44d1c05-1e4c-4a48-8de9-0750a0f4f2da}; !- Port 1

OS:Sizing:Zone,
  {65519fb8-5d0e-46c3-a7da-0c658a893cc6}, !- Handle
  {2ca9cb02-0d3b-4b74-b140-4775c92b9733}, !- Zone or ZoneList Name
  SupplyAirTemperature,                   !- Zone Cooling Design Supply Air Temperature Input Method
  14,                                     !- Zone Cooling Design Supply Air Temperature {C}
  11.11,                                  !- Zone Cooling Design Supply Air Temperature Difference {deltaC}
  SupplyAirTemperature,                   !- Zone Heating Design Supply Air Temperature Input Method
  40,                                     !- Zone Heating Design Supply Air Temperature {C}
  11.11,                                  !- Zone Heating Design Supply Air Temperature Difference {deltaC}
  0.0085,                                 !- Zone Cooling Design Supply Air Humidity Ratio {kg-H2O/kg-air}
  0.008,                                  !- Zone Heating Design Supply Air Humidity Ratio {kg-H2O/kg-air}
  ,                                       !- Zone Heating Sizing Factor
  ,                                       !- Zone Cooling Sizing Factor
  DesignDay,                              !- Cooling Design Air Flow Method
  ,                                       !- Cooling Design Air Flow Rate {m3/s}
  ,                                       !- Cooling Minimum Air Flow per Zone Floor Area {m3/s-m2}
  ,                                       !- Cooling Minimum Air Flow {m3/s}
  ,                                       !- Cooling Minimum Air Flow Fraction
  DesignDay,                              !- Heating Design Air Flow Method
  ,                                       !- Heating Design Air Flow Rate {m3/s}
  ,                                       !- Heating Maximum Air Flow per Zone Floor Area {m3/s-m2}
  ,                                       !- Heating Maximum Air Flow {m3/s}
  ,                                       !- Heating Maximum Air Flow Fraction
  ,                                       !- Design Zone Air Distribution Effectiveness in Cooling Mode
  ,                                       !- Design Zone Air Distribution Effectiveness in Heating Mode
  No,                                     !- Account for Dedicated Outdoor Air System
  NeutralSupplyAir,                       !- Dedicated Outdoor Air System Control Strategy
  autosize,                               !- Dedicated Outdoor Air Low Setpoint Temperature for Design {C}
  autosize;                               !- Dedicated Outdoor Air High Setpoint Temperature for Design {C}

OS:ZoneHVAC:EquipmentList,
  {d21c272c-dfc3-4c94-a161-d572916e5455}, !- Handle
  Zone HVAC Equipment List 1,             !- Name
  {2ca9cb02-0d3b-4b74-b140-4775c92b9733}, !- Thermal Zone
  ,                                       !- Load Distribution Scheme
  {624c4fb3-2b68-4e13-b32f-4505ace86c63}, !- Zone Equipment 1
  1,                                      !- Zone Equipment Cooling Sequence 1
  1;                                      !- Zone Equipment Heating or No-Load Sequence 1

OS:ThermalZone,
  {776fbd92-e870-4dd8-b9c8-787e4379fef7}, !- Handle
  garage zone,                            !- Name
  ,                                       !- Multiplier
  ,                                       !- Ceiling Height {m}
  ,                                       !- Volume {m3}
  ,                                       !- Floor Area {m2}
  ,                                       !- Zone Inside Convection Algorithm
  ,                                       !- Zone Outside Convection Algorithm
  ,                                       !- Zone Conditioning Equipment List Name
  {d77c19a2-0f99-49e1-a585-e1aec20b5a5d}, !- Zone Air Inlet Port List
  {bb225122-03b9-4206-bd59-8951b278c704}, !- Zone Air Exhaust Port List
  {738af0ea-1b47-4393-8e8e-6f06852fb098}, !- Zone Air Node Name
  {dfe1e4f9-825d-457d-8c90-d546f502fbe3}, !- Zone Return Air Port List
  ,                                       !- Primary Daylighting Control Name
  ,                                       !- Fraction of Zone Controlled by Primary Daylighting Control
  ,                                       !- Secondary Daylighting Control Name
  ,                                       !- Fraction of Zone Controlled by Secondary Daylighting Control
  ,                                       !- Illuminance Map Name
  ,                                       !- Group Rendering Name
  ,                                       !- Thermostat Name
  No;                                     !- Use Ideal Air Loads

OS:Node,
  {8a04bdd0-18b4-4be1-a117-e799b8be32a2}, !- Handle
  Node 2,                                 !- Name
  {738af0ea-1b47-4393-8e8e-6f06852fb098}, !- Inlet Port
  ;                                       !- Outlet Port

OS:Connection,
  {738af0ea-1b47-4393-8e8e-6f06852fb098}, !- Handle
  {1f1163e8-7592-4bdf-af68-8eaf29e06d90}, !- Name
  {776fbd92-e870-4dd8-b9c8-787e4379fef7}, !- Source Object
  11,                                     !- Outlet Port
  {8a04bdd0-18b4-4be1-a117-e799b8be32a2}, !- Target Object
  2;                                      !- Inlet Port

OS:PortList,
  {d77c19a2-0f99-49e1-a585-e1aec20b5a5d}, !- Handle
  {cd549386-fb00-4421-92f3-2848d88242b5}, !- Name
  {776fbd92-e870-4dd8-b9c8-787e4379fef7}; !- HVAC Component

OS:PortList,
  {bb225122-03b9-4206-bd59-8951b278c704}, !- Handle
  {8be7dc31-14da-411e-a81a-452a711d3d20}, !- Name
  {776fbd92-e870-4dd8-b9c8-787e4379fef7}; !- HVAC Component

OS:PortList,
  {dfe1e4f9-825d-457d-8c90-d546f502fbe3}, !- Handle
  {3a3a7c2d-2111-4296-80df-cb7ebd4b3bce}, !- Name
  {776fbd92-e870-4dd8-b9c8-787e4379fef7}; !- HVAC Component

OS:Sizing:Zone,
  {a4cf6245-f7b5-4cac-b7b6-17b44abdeec6}, !- Handle
  {776fbd92-e870-4dd8-b9c8-787e4379fef7}, !- Zone or ZoneList Name
  SupplyAirTemperature,                   !- Zone Cooling Design Supply Air Temperature Input Method
  14,                                     !- Zone Cooling Design Supply Air Temperature {C}
  11.11,                                  !- Zone Cooling Design Supply Air Temperature Difference {deltaC}
  SupplyAirTemperature,                   !- Zone Heating Design Supply Air Temperature Input Method
  40,                                     !- Zone Heating Design Supply Air Temperature {C}
  11.11,                                  !- Zone Heating Design Supply Air Temperature Difference {deltaC}
  0.0085,                                 !- Zone Cooling Design Supply Air Humidity Ratio {kg-H2O/kg-air}
  0.008,                                  !- Zone Heating Design Supply Air Humidity Ratio {kg-H2O/kg-air}
  ,                                       !- Zone Heating Sizing Factor
  ,                                       !- Zone Cooling Sizing Factor
  DesignDay,                              !- Cooling Design Air Flow Method
  ,                                       !- Cooling Design Air Flow Rate {m3/s}
  ,                                       !- Cooling Minimum Air Flow per Zone Floor Area {m3/s-m2}
  ,                                       !- Cooling Minimum Air Flow {m3/s}
  ,                                       !- Cooling Minimum Air Flow Fraction
  DesignDay,                              !- Heating Design Air Flow Method
  ,                                       !- Heating Design Air Flow Rate {m3/s}
  ,                                       !- Heating Maximum Air Flow per Zone Floor Area {m3/s-m2}
  ,                                       !- Heating Maximum Air Flow {m3/s}
  ,                                       !- Heating Maximum Air Flow Fraction
  ,                                       !- Design Zone Air Distribution Effectiveness in Cooling Mode
  ,                                       !- Design Zone Air Distribution Effectiveness in Heating Mode
  No,                                     !- Account for Dedicated Outdoor Air System
  NeutralSupplyAir,                       !- Dedicated Outdoor Air System Control Strategy
  autosize,                               !- Dedicated Outdoor Air Low Setpoint Temperature for Design {C}
  autosize;                               !- Dedicated Outdoor Air High Setpoint Temperature for Design {C}

OS:ZoneHVAC:EquipmentList,
  {347718da-5a88-46bb-bda3-e1cda5c517d9}, !- Handle
  Zone HVAC Equipment List 2,             !- Name
  {776fbd92-e870-4dd8-b9c8-787e4379fef7}; !- Thermal Zone

OS:Space,
  {30cb8241-99fd-4723-a8d4-9b5aa9713f5f}, !- Handle
  garage space,                           !- Name
  {ee3244ac-bfa9-476e-9a56-94db8a44ca26}, !- Space Type Name
  ,                                       !- Default Construction Set Name
  ,                                       !- Default Schedule Set Name
  -0,                                     !- Direction of Relative North {deg}
  0,                                      !- X Origin {m}
  0,                                      !- Y Origin {m}
  0,                                      !- Z Origin {m}
  ,                                       !- Building Story Name
  {776fbd92-e870-4dd8-b9c8-787e4379fef7}; !- Thermal Zone Name

OS:Surface,
  {eb52345e-0231-41b5-aaec-cd1bf92eda19}, !- Handle
  Surface 1,                              !- Name
  Floor,                                  !- Surface Type
  {f0a136df-c242-4ae7-a91e-f5cb75901076}, !- Construction Name
  {30cb8241-99fd-4723-a8d4-9b5aa9713f5f}, !- Space Name
  Foundation,                             !- Outside Boundary Condition
  {4cc39a43-8e2e-44f5-8a27-8f99bcd676a2}, !- Outside Boundary Condition Object
  NoSun,                                  !- Sun Exposure
  NoWind,                                 !- Wind Exposure
  ,                                       !- View Factor to Ground
  ,                                       !- Number of Vertices
  12.4316830995045, -3.6576, 0,           !- X,Y,Z Vertex 1 {m}
  12.4316830995045, 3.6576, 0,            !- X,Y,Z Vertex 2 {m}
  16.0892830995045, 3.6576, 0,            !- X,Y,Z Vertex 3 {m}
  16.0892830995045, -3.6576, 0;           !- X,Y,Z Vertex 4 {m}

OS:Surface,
  {d621c22b-5818-4860-b6fd-daec2c1884ab}, !- Handle
  Surface 2,                              !- Name
  Wall,                                   !- Surface Type
  {da426e45-38bb-4a8f-a471-1c79b0a22fa8}, !- Construction Name
  {30cb8241-99fd-4723-a8d4-9b5aa9713f5f}, !- Space Name
  Surface,                                !- Outside Boundary Condition
  {aa8658f0-1f8d-421c-a53c-da6a9a69175e}, !- Outside Boundary Condition Object
  NoSun,                                  !- Sun Exposure
  NoWind,                                 !- Wind Exposure
  ,                                       !- View Factor to Ground
  ,                                       !- Number of Vertices
  12.4316830995045, 3.6576, 2.4384,       !- X,Y,Z Vertex 1 {m}
  12.4316830995045, 3.6576, 0,            !- X,Y,Z Vertex 2 {m}
  12.4316830995045, 0, 0,                 !- X,Y,Z Vertex 3 {m}
  12.4316830995045, 0, 2.4384;            !- X,Y,Z Vertex 4 {m}

OS:Surface,
  {5f0b30b6-9f3f-417d-b65c-fbade123fd66}, !- Handle
  Surface 3,                              !- Name
  Wall,                                   !- Surface Type
  {da426e45-38bb-4a8f-a471-1c79b0a22fa8}, !- Construction Name
  {30cb8241-99fd-4723-a8d4-9b5aa9713f5f}, !- Space Name
  Surface,                                !- Outside Boundary Condition
  {d56dc1f9-445b-435d-9374-c25a68f73150}, !- Outside Boundary Condition Object
  NoSun,                                  !- Sun Exposure
  NoWind,                                 !- Wind Exposure
  ,                                       !- View Factor to Ground
  ,                                       !- Number of Vertices
  16.0892830995045, 3.6576, 2.4384,       !- X,Y,Z Vertex 1 {m}
  16.0892830995045, 3.6576, 0,            !- X,Y,Z Vertex 2 {m}
  12.4316830995045, 3.6576, 0,            !- X,Y,Z Vertex 3 {m}
  12.4316830995045, 3.6576, 2.4384;       !- X,Y,Z Vertex 4 {m}

OS:Surface,
  {b169aa76-2c4c-42ee-9101-62f1e875770f}, !- Handle
  Surface 4,                              !- Name
  Wall,                                   !- Surface Type
  {e694a514-1d68-456e-805c-5802361dad08}, !- Construction Name
  {30cb8241-99fd-4723-a8d4-9b5aa9713f5f}, !- Space Name
  Outdoors,                               !- Outside Boundary Condition
  ,                                       !- Outside Boundary Condition Object
  SunExposed,                             !- Sun Exposure
  WindExposed,                            !- Wind Exposure
  ,                                       !- View Factor to Ground
  ,                                       !- Number of Vertices
  16.0892830995045, -3.6576, 2.4384,      !- X,Y,Z Vertex 1 {m}
  16.0892830995045, -3.6576, 0,           !- X,Y,Z Vertex 2 {m}
  16.0892830995045, 3.6576, 0,            !- X,Y,Z Vertex 3 {m}
  16.0892830995045, 3.6576, 2.4384;       !- X,Y,Z Vertex 4 {m}

OS:Surface,
  {a5283971-442c-40ac-9c9f-e1f296fcc0ed}, !- Handle
  Surface 5,                              !- Name
  Wall,                                   !- Surface Type
  {e694a514-1d68-456e-805c-5802361dad08}, !- Construction Name
  {30cb8241-99fd-4723-a8d4-9b5aa9713f5f}, !- Space Name
  Outdoors,                               !- Outside Boundary Condition
  ,                                       !- Outside Boundary Condition Object
  SunExposed,                             !- Sun Exposure
  WindExposed,                            !- Wind Exposure
  ,                                       !- View Factor to Ground
  ,                                       !- Number of Vertices