!- NOTE: Auto-generated from /test/osw_files/SFD_1story_FB_UA_GRG_MSHP_FuelTanklessWH.osw

OS:Version,
  {cea34cab-e1a5-4284-ade1-3f85695ba133}, !- Handle
  2.7.0;                                  !- Version Identifier

OS:SimulationControl,
  {3fa64424-d333-4597-a3a4-d3ca1db85370}, !- Handle
  ,                                       !- Do Zone Sizing Calculation
  ,                                       !- Do System Sizing Calculation
  ,                                       !- Do Plant Sizing Calculation
  No;                                     !- Run Simulation for Sizing Periods

OS:Timestep,
  {ba9b25a9-11a7-4809-9398-159679025f1a}, !- Handle
  6;                                      !- Number of Timesteps per Hour

OS:ShadowCalculation,
  {a222d840-9493-43b1-84ee-77196fc776dc}, !- Handle
  20,                                     !- Calculation Frequency
  200;                                    !- Maximum Figures in Shadow Overlap Calculations

OS:SurfaceConvectionAlgorithm:Outside,
  {86e89818-d4cc-4430-890d-59775cdbeb61}, !- Handle
  DOE-2;                                  !- Algorithm

OS:SurfaceConvectionAlgorithm:Inside,
  {6bac6f4a-b7b4-4c8e-a324-b646d23c0aaa}, !- Handle
  TARP;                                   !- Algorithm

OS:ZoneCapacitanceMultiplier:ResearchSpecial,
  {0a768a5f-9e96-4c22-8776-3c1687d983c4}, !- Handle
  ,                                       !- Temperature Capacity Multiplier
  15,                                     !- Humidity Capacity Multiplier
  ;                                       !- Carbon Dioxide Capacity Multiplier

OS:RunPeriod,
  {9c3be8f7-c71a-41b8-98e6-9e0e831cff5c}, !- Handle
  Run Period 1,                           !- Name
  1,                                      !- Begin Month
  1,                                      !- Begin Day of Month
  12,                                     !- End Month
  31,                                     !- End Day of Month
  ,                                       !- Use Weather File Holidays and Special Days
  ,                                       !- Use Weather File Daylight Saving Period
  ,                                       !- Apply Weekend Holiday Rule
  ,                                       !- Use Weather File Rain Indicators
  ,                                       !- Use Weather File Snow Indicators
  ;                                       !- Number of Times Runperiod to be Repeated

OS:WeatherFile,
  {d897c1b2-52c1-4d49-bcb1-5d906e26eca9}, !- Handle
  Denver Intl Ap,                         !- City
  CO,                                     !- State Province Region
  USA,                                    !- Country
  TMY3,                                   !- Data Source
  725650,                                 !- WMO Number
  39.83,                                  !- Latitude {deg}
  -104.65,                                !- Longitude {deg}
  -7,                                     !- Time Zone {hr}
  1650,                                   !- Elevation {m}
  file:../tests/USA_CO_Denver_Intl_AP_725650_TMY3.epw, !- Url
  E23378AA;                               !- Checksum

OS:AdditionalProperties,
  {14b74b1f-56cc-466f-8596-efe0ffd16d4d}, !- Handle
  {d897c1b2-52c1-4d49-bcb1-5d906e26eca9}, !- Object Name
  EPWHeaderCity,                          !- Feature Name 1
  String,                                 !- Feature Data Type 1
  Denver Intl Ap,                         !- Feature Value 1
  EPWHeaderState,                         !- Feature Name 2
  String,                                 !- Feature Data Type 2
  CO,                                     !- Feature Value 2
  EPWHeaderCountry,                       !- Feature Name 3
  String,                                 !- Feature Data Type 3
  USA,                                    !- Feature Value 3
  EPWHeaderDataSource,                    !- Feature Name 4
  String,                                 !- Feature Data Type 4
  TMY3,                                   !- Feature Value 4
  EPWHeaderStation,                       !- Feature Name 5
  String,                                 !- Feature Data Type 5
  725650,                                 !- Feature Value 5
  EPWHeaderLatitude,                      !- Feature Name 6
  Double,                                 !- Feature Data Type 6
  39.829999999999998,                     !- Feature Value 6
  EPWHeaderLongitude,                     !- Feature Name 7
  Double,                                 !- Feature Data Type 7
  -104.65000000000001,                    !- Feature Value 7
  EPWHeaderTimezone,                      !- Feature Name 8
  Double,                                 !- Feature Data Type 8
  -7,                                     !- Feature Value 8
  EPWHeaderAltitude,                      !- Feature Name 9
  Double,                                 !- Feature Data Type 9
  5413.3858267716532,                     !- Feature Value 9
  EPWHeaderLocalPressure,                 !- Feature Name 10
  Double,                                 !- Feature Data Type 10
  0.81937567683596546,                    !- Feature Value 10
  EPWHeaderRecordsPerHour,                !- Feature Name 11
  Double,                                 !- Feature Data Type 11
  1,                                      !- Feature Value 11
  EPWDataAnnualAvgDrybulb,                !- Feature Name 12
  Double,                                 !- Feature Data Type 12
  51.575616438356228,                     !- Feature Value 12
  EPWDataAnnualMinDrybulb,                !- Feature Name 13
  Double,                                 !- Feature Data Type 13
  -2.9200000000000017,                    !- Feature Value 13
  EPWDataAnnualMaxDrybulb,                !- Feature Name 14
  Double,                                 !- Feature Data Type 14
  104,                                    !- Feature Value 14
  EPWDataCDD50F,                          !- Feature Name 15
  Double,                                 !- Feature Data Type 15
  3072.2925000000005,                     !- Feature Value 15
  EPWDataCDD65F,                          !- Feature Name 16
  Double,                                 !- Feature Data Type 16
  883.62000000000035,                     !- Feature Value 16
  EPWDataHDD50F,                          !- Feature Name 17
  Double,                                 !- Feature Data Type 17
  2497.1925000000001,                     !- Feature Value 17
  EPWDataHDD65F,                          !- Feature Name 18
  Double,                                 !- Feature Data Type 18
  5783.5200000000013,                     !- Feature Value 18
  EPWDataAnnualAvgWindspeed,              !- Feature Name 19
  Double,                                 !- Feature Data Type 19
  3.9165296803649667,                     !- Feature Value 19
  EPWDataMonthlyAvgDrybulbs,              !- Feature Name 20
  String,                                 !- Feature Data Type 20
  33.4191935483871&#4431.90142857142857&#4443.02620967741937&#4442.48624999999999&#4459.877741935483854&#4473.57574999999997&#4472.07975806451608&#4472.70008064516134&#4466.49200000000006&#4450.079112903225806&#4437.218250000000005&#4434.582177419354835, !- Feature Value 20
  EPWDataGroundMonthlyTemps,              !- Feature Name 21
  String,                                 !- Feature Data Type 21
  44.08306285945173&#4440.89570904991865&#4440.64045432632048&#4442.153016571250646&#4448.225111118704206&#4454.268919273837525&#4459.508577937551024&#4462.82777283423508&#4463.10975667174995&#4460.41014950381947&#4455.304105212311526&#4449.445696474514364, !- Feature Value 21
  EPWDataWSF,                             !- Feature Name 22
  Double,                                 !- Feature Data Type 22
  0.58999999999999997,                    !- Feature Value 22
  EPWDataMonthlyAvgDailyHighDrybulbs,     !- Feature Name 23
  String,                                 !- Feature Data Type 23
  47.41032258064516&#4446.58642857142857&#4455.15032258064517&#4453.708&#4472.80193548387098&#4488.67600000000002&#4486.1858064516129&#4485.87225806451613&#4482.082&#4463.18064516129033&#4448.73400000000001&#4448.87935483870968, !- Feature Value 23
  EPWDataMonthlyAvgDailyLowDrybulbs,      !- Feature Name 24
  String,                                 !- Feature Data Type 24
  19.347741935483874&#4419.856428571428573&#4430.316129032258065&#4431.112&#4447.41612903225806&#4457.901999999999994&#4459.063870967741934&#4460.956774193548384&#4452.352000000000004&#4438.41612903225806&#4427.002000000000002&#4423.02903225806451, !- Feature Value 24
  EPWDesignHeatingDrybulb,                !- Feature Name 25
  Double,                                 !- Feature Data Type 25
  6.8000000000000007,                     !- Feature Value 25
  EPWDesignHeatingWindspeed,              !- Feature Name 26
  Double,                                 !- Feature Data Type 26
  12,                                     !- Feature Value 26
  EPWDesignCoolingDrybulb,                !- Feature Name 27
  Double,                                 !- Feature Data Type 27
  91.760000000000005,                     !- Feature Value 27
  EPWDesignCoolingWetbulb,                !- Feature Name 28
  Double,                                 !- Feature Data Type 28
  60.079999999999998,                     !- Feature Value 28
  EPWDesignCoolingHumidityRatio,          !- Feature Name 29
  Double,                                 !- Feature Data Type 29
  0.006050392196571398,                   !- Feature Value 29
  EPWDesignCoolingWindspeed,              !- Feature Name 30
  Double,                                 !- Feature Data Type 30
  4.2000000000000002,                     !- Feature Value 30
  EPWDesignDailyTemperatureRange,         !- Feature Name 31
  Double,                                 !- Feature Data Type 31
  27.359999999999999,                     !- Feature Value 31
  EPWDesignDehumidDrybulb,                !- Feature Name 32
  Double,                                 !- Feature Data Type 32
  67.280000000000001,                     !- Feature Value 32
  EPWDesignDehumidHumidityRatio,          !- Feature Name 33
  Double,                                 !- Feature Data Type 33
  0.012295426899271008,                   !- Feature Value 33
  EPWDesignCoolingDirectNormal,           !- Feature Name 34
  Double,                                 !- Feature Data Type 34
  985,                                    !- Feature Value 34
  EPWDesignCoolingDiffuseHorizontal,      !- Feature Name 35
  Double,                                 !- Feature Data Type 35
  84;                                     !- Feature Value 35

OS:YearDescription,
  {54157113-392c-4994-b1ba-782397e6ee66}, !- Handle
  ,                                       !- Calendar Year
  Monday;                                 !- Day of Week for Start Day

OS:Site,
  {0c252dbb-2ee8-4e8b-b9c7-d415b22b54a1}, !- Handle
  Denver Intl Ap_CO_USA,                  !- Name
  39.83,                                  !- Latitude {deg}
  -104.65,                                !- Longitude {deg}
  -7,                                     !- Time Zone {hr}
  1650,                                   !- Elevation {m}
  Suburbs;                                !- Terrain

OS:ClimateZones,
  {87e7d4b0-c9f6-4172-ae9b-92cea061eca4}, !- Handle
  ,                                       !- Active Institution
  ,                                       !- Active Year
  ,                                       !- Climate Zone Institution Name 1
  ,                                       !- Climate Zone Document Name 1
  ,                                       !- Climate Zone Document Year 1
  ,                                       !- Climate Zone Value 1
  Building America,                       !- Climate Zone Institution Name 2
  ,                                       !- Climate Zone Document Name 2
  0,                                      !- Climate Zone Document Year 2
  Cold;                                   !- Climate Zone Value 2

OS:Site:WaterMainsTemperature,
  {94c6adfc-60c0-4974-b629-b40bb1919176}, !- Handle
  Correlation,                            !- Calculation Method
  ,                                       !- Temperature Schedule Name
  10.8753424657535,                       !- Annual Average Outdoor Air Temperature {C}
  23.1524007936508;                       !- Maximum Difference In Monthly Average Outdoor Air Temperatures {deltaC}

OS:RunPeriodControl:DaylightSavingTime,
  {7cffbf44-6aae-4ad5-bdb7-6233bbb6e8f7}, !- Handle
  4/7,                                    !- Start Date
  10/26;                                  !- End Date

OS:Site:GroundTemperature:Deep,
  {edfd8ce7-066f-4b8d-a826-28d79afd101a}, !- Handle
  10.8753424657535,                       !- January Deep Ground Temperature {C}
  10.8753424657535,                       !- February Deep Ground Temperature {C}
  10.8753424657535,                       !- March Deep Ground Temperature {C}
  10.8753424657535,                       !- April Deep Ground Temperature {C}
  10.8753424657535,                       !- May Deep Ground Temperature {C}
  10.8753424657535,                       !- June Deep Ground Temperature {C}
  10.8753424657535,                       !- July Deep Ground Temperature {C}
  10.8753424657535,                       !- August Deep Ground Temperature {C}
  10.8753424657535,                       !- September Deep Ground Temperature {C}
  10.8753424657535,                       !- October Deep Ground Temperature {C}
  10.8753424657535,                       !- November Deep Ground Temperature {C}
  10.8753424657535;                       !- December Deep Ground Temperature {C}

OS:ThermalZone,
  {d1cf9d0b-b6a8-4041-8f8e-536742fc123a}, !- Handle
  living zone,                            !- Name
  ,                                       !- Multiplier
  ,                                       !- Ceiling Height {m}
  ,                                       !- Volume {m3}
  ,                                       !- Floor Area {m2}
  ,                                       !- Zone Inside Convection Algorithm
  ,                                       !- Zone Outside Convection Algorithm
  ,                                       !- Zone Conditioning Equipment List Name
  {670bf86b-53cc-42b4-ba8e-2ae68ef7e51e}, !- Zone Air Inlet Port List
  {f97055c0-2dad-494b-89a0-97082607fce6}, !- Zone Air Exhaust Port List
  {c61b2d7a-d12f-4ad7-a311-ac5600fd5c58}, !- Zone Air Node Name
  {c4a63ac1-692b-462e-a797-3ae081a3b1e4}, !- Zone Return Air Port List
  ,                                       !- Primary Daylighting Control Name
  ,                                       !- Fraction of Zone Controlled by Primary Daylighting Control
  ,                                       !- Secondary Daylighting Control Name
  ,                                       !- Fraction of Zone Controlled by Secondary Daylighting Control
  ,                                       !- Illuminance Map Name
  ,                                       !- Group Rendering Name
  {ae40cee4-8db9-4221-9356-368c794f3b93}, !- Thermostat Name
  No;                                     !- Use Ideal Air Loads

OS:Node,
  {dd137a12-2ea8-4831-b0b2-d8026d713b0a}, !- Handle
  Node 1,                                 !- Name
  {c61b2d7a-d12f-4ad7-a311-ac5600fd5c58}, !- Inlet Port
  ;                                       !- Outlet Port

OS:Connection,
  {c61b2d7a-d12f-4ad7-a311-ac5600fd5c58}, !- Handle
  {a49ffc35-1719-4200-9f41-04f4d30ef124}, !- Name
  {d1cf9d0b-b6a8-4041-8f8e-536742fc123a}, !- Source Object
  11,                                     !- Outlet Port
  {dd137a12-2ea8-4831-b0b2-d8026d713b0a}, !- Target Object
  2;                                      !- Inlet Port

OS:PortList,
  {670bf86b-53cc-42b4-ba8e-2ae68ef7e51e}, !- Handle
  {70af1ab1-ba87-45ed-a6c2-a46d2c9c7e4a}, !- Name
  {d1cf9d0b-b6a8-4041-8f8e-536742fc123a}, !- HVAC Component
  {0281a61a-df69-4efd-919c-f5f880d6b8c5}; !- Port 1

OS:PortList,
  {f97055c0-2dad-494b-89a0-97082607fce6}, !- Handle
  {f5caf77b-a4d0-4ba6-8cf4-40f6a40ab1a4}, !- Name
  {d1cf9d0b-b6a8-4041-8f8e-536742fc123a}, !- HVAC Component
  {4a74a15b-b500-4c0c-b071-2aece3990a0b}; !- Port 1

OS:PortList,
  {c4a63ac1-692b-462e-a797-3ae081a3b1e4}, !- Handle
  {8f9bbcb1-5bde-4e90-afcd-80a6ca76b76e}, !- Name
  {d1cf9d0b-b6a8-4041-8f8e-536742fc123a}; !- HVAC Component

OS:Sizing:Zone,
  {253ed6cf-7438-4b0b-af88-41762e71896d}, !- Handle
  {d1cf9d0b-b6a8-4041-8f8e-536742fc123a}, !- Zone or ZoneList Name
  SupplyAirTemperature,                   !- Zone Cooling Design Supply Air Temperature Input Method
  14,                                     !- Zone Cooling Design Supply Air Temperature {C}
  11.11,                                  !- Zone Cooling Design Supply Air Temperature Difference {deltaC}
  SupplyAirTemperature,                   !- Zone Heating Design Supply Air Temperature Input Method
  40,                                     !- Zone Heating Design Supply Air Temperature {C}
  11.11,                                  !- Zone Heating Design Supply Air Temperature Difference {deltaC}
  0.0085,                                 !- Zone Cooling Design Supply Air Humidity Ratio {kg-H2O/kg-air}
  0.008,                                  !- Zone Heating Design Supply Air Humidity Ratio {kg-H2O/kg-air}
  ,                                       !- Zone Heating Sizing Factor
  ,                                       !- Zone Cooling Sizing Factor
  DesignDay,                              !- Cooling Design Air Flow Method
  ,                                       !- Cooling Design Air Flow Rate {m3/s}
  ,                                       !- Cooling Minimum Air Flow per Zone Floor Area {m3/s-m2}
  ,                                       !- Cooling Minimum Air Flow {m3/s}
  ,                                       !- Cooling Minimum Air Flow Fraction
  DesignDay,                              !- Heating Design Air Flow Method
  ,                                       !- Heating Design Air Flow Rate {m3/s}
  ,                                       !- Heating Maximum Air Flow per Zone Floor Area {m3/s-m2}
  ,                                       !- Heating Maximum Air Flow {m3/s}
  ,                                       !- Heating Maximum Air Flow Fraction
  ,                                       !- Design Zone Air Distribution Effectiveness in Cooling Mode
  ,                                       !- Design Zone Air Distribution Effectiveness in Heating Mode
  No,                                     !- Account for Dedicated Outdoor Air System
  NeutralSupplyAir,                       !- Dedicated Outdoor Air System Control Strategy
  autosize,                               !- Dedicated Outdoor Air Low Setpoint Temperature for Design {C}
  autosize;                               !- Dedicated Outdoor Air High Setpoint Temperature for Design {C}

OS:ZoneHVAC:EquipmentList,
  {f0a203a6-0229-40c4-81f5-05334faa794d}, !- Handle
  Zone HVAC Equipment List 1,             !- Name
  {d1cf9d0b-b6a8-4041-8f8e-536742fc123a}, !- Thermal Zone
  ,                                       !- Load Distribution Scheme
  {4cae58c1-4bbb-4b99-b480-5e05d2604898}, !- Zone Equipment 1
  1,                                      !- Zone Equipment Cooling Sequence 1
  1,                                      !- Zone Equipment Heating or No-Load Sequence 1
  {6745e9e2-7869-410e-b671-9fd6ef09eb52}, !- Zone Equipment 2
  2,                                      !- Zone Equipment Cooling Sequence 2
  2;                                      !- Zone Equipment Heating or No-Load Sequence 2

OS:ThermalZone,
  {e114e605-ea85-4b21-b838-99cf38b593d0}, !- Handle
  garage zone,                            !- Name
  ,                                       !- Multiplier
  ,                                       !- Ceiling Height {m}
  ,                                       !- Volume {m3}
  ,                                       !- Floor Area {m2}
  ,                                       !- Zone Inside Convection Algorithm
  ,                                       !- Zone Outside Convection Algorithm
  ,                                       !- Zone Conditioning Equipment List Name
  {21936cb7-701d-4be0-b041-93064f993ae2}, !- Zone Air Inlet Port List
  {2acc3f92-e00d-47ed-a85a-055af6c31887}, !- Zone Air Exhaust Port List
  {2553558b-bfe4-4257-be50-d3a1d117db8f}, !- Zone Air Node Name
  {a8b8a70b-b8d3-4b51-8397-410d8c3f2ea5}, !- Zone Return Air Port List
  ,                                       !- Primary Daylighting Control Name
  ,                                       !- Fraction of Zone Controlled by Primary Daylighting Control
  ,                                       !- Secondary Daylighting Control Name
  ,                                       !- Fraction of Zone Controlled by Secondary Daylighting Control
  ,                                       !- Illuminance Map Name
  ,                                       !- Group Rendering Name
  ,                                       !- Thermostat Name
  No;                                     !- Use Ideal Air Loads

OS:Node,
  {f686c1ee-7db2-44f9-97c1-6213609f330e}, !- Handle
  Node 2,                                 !- Name
  {2553558b-bfe4-4257-be50-d3a1d117db8f}, !- Inlet Port
  ;                                       !- Outlet Port

OS:Connection,
  {2553558b-bfe4-4257-be50-d3a1d117db8f}, !- Handle
  {cc8e7e72-2ec9-43c4-a0a9-8721d27cdca3}, !- Name
  {e114e605-ea85-4b21-b838-99cf38b593d0}, !- Source Object
  11,                                     !- Outlet Port
  {f686c1ee-7db2-44f9-97c1-6213609f330e}, !- Target Object
  2;                                      !- Inlet Port

OS:PortList,
  {21936cb7-701d-4be0-b041-93064f993ae2}, !- Handle
  {4f4394f9-aff5-49d3-9613-e89e1f2d8618}, !- Name
  {e114e605-ea85-4b21-b838-99cf38b593d0}; !- HVAC Component

OS:PortList,
  {2acc3f92-e00d-47ed-a85a-055af6c31887}, !- Handle
  {ccd9ff0c-7529-47d9-8020-278a870df6ba}, !- Name
  {e114e605-ea85-4b21-b838-99cf38b593d0}; !- HVAC Component

OS:PortList,
  {a8b8a70b-b8d3-4b51-8397-410d8c3f2ea5}, !- Handle
  {08423a42-e163-40fd-8050-75ad65a37380}, !- Name
  {e114e605-ea85-4b21-b838-99cf38b593d0}; !- HVAC Component

OS:Sizing:Zone,
  {41219ea6-db8b-43bf-800e-05db3ddc7eeb}, !- Handle
  {e114e605-ea85-4b21-b838-99cf38b593d0}, !- Zone or ZoneList Name
  SupplyAirTemperature,                   !- Zone Cooling Design Supply Air Temperature Input Method
  14,                                     !- Zone Cooling Design Supply Air Temperature {C}
  11.11,                                  !- Zone Cooling Design Supply Air Temperature Difference {deltaC}
  SupplyAirTemperature,                   !- Zone Heating Design Supply Air Temperature Input Method
  40,                                     !- Zone Heating Design Supply Air Temperature {C}
  11.11,                                  !- Zone Heating Design Supply Air Temperature Difference {deltaC}
  0.0085,                                 !- Zone Cooling Design Supply Air Humidity Ratio {kg-H2O/kg-air}
  0.008,                                  !- Zone Heating Design Supply Air Humidity Ratio {kg-H2O/kg-air}
  ,                                       !- Zone Heating Sizing Factor
  ,                                       !- Zone Cooling Sizing Factor
  DesignDay,                              !- Cooling Design Air Flow Method
  ,                                       !- Cooling Design Air Flow Rate {m3/s}
  ,                                       !- Cooling Minimum Air Flow per Zone Floor Area {m3/s-m2}
  ,                                       !- Cooling Minimum Air Flow {m3/s}
  ,                                       !- Cooling Minimum Air Flow Fraction
  DesignDay,                              !- Heating Design Air Flow Method
  ,                                       !- Heating Design Air Flow Rate {m3/s}
  ,                                       !- Heating Maximum Air Flow per Zone Floor Area {m3/s-m2}
  ,                                       !- Heating Maximum Air Flow {m3/s}
  ,                                       !- Heating Maximum Air Flow Fraction
  ,                                       !- Design Zone Air Distribution Effectiveness in Cooling Mode
  ,                                       !- Design Zone Air Distribution Effectiveness in Heating Mode
  No,                                     !- Account for Dedicated Outdoor Air System
  NeutralSupplyAir,                       !- Dedicated Outdoor Air System Control Strategy
  autosize,                               !- Dedicated Outdoor Air Low Setpoint Temperature for Design {C}
  autosize;                               !- Dedicated Outdoor Air High Setpoint Temperature for Design {C}

OS:ZoneHVAC:EquipmentList,
  {785cc474-640d-4a6c-94ca-b83bf1b273bc}, !- Handle
  Zone HVAC Equipment List 2,             !- Name
  {e114e605-ea85-4b21-b838-99cf38b593d0}; !- Thermal Zone

OS:Space,
  {afbbcabb-5563-444e-b8f6-4640101aa80e}, !- Handle
  garage space,                           !- Name
  {a9633658-d1cf-42c8-aeec-92672f350d35}, !- Space Type Name
  ,                                       !- Default Construction Set Name
  ,                                       !- Default Schedule Set Name
  -0,                                     !- Direction of Relative North {deg}
  0,                                      !- X Origin {m}
  0,                                      !- Y Origin {m}
  0,                                      !- Z Origin {m}
  ,                                       !- Building Story Name
  {e114e605-ea85-4b21-b838-99cf38b593d0}; !- Thermal Zone Name

OS:Surface,
  {ceb1d44c-a7b0-456f-9032-1573d0a06070}, !- Handle
  Surface 1,                              !- Name
  Floor,                                  !- Surface Type
  {c3297328-04a5-450f-b611-61f4a863fb02}, !- Construction Name
  {afbbcabb-5563-444e-b8f6-4640101aa80e}, !- Space Name
  Foundation,                             !- Outside Boundary Condition
  {752c9257-afd8-4138-a47e-4e873072c062}, !- Outside Boundary Condition Object
  NoSun,                                  !- Sun Exposure
  NoWind,                                 !- Wind Exposure
  ,                                       !- View Factor to Ground
  ,                                       !- Number of Vertices
  16.3508427172132, -3.6576, 0,           !- X,Y,Z Vertex 1 {m}
  16.3508427172132, 3.6576, 0,            !- X,Y,Z Vertex 2 {m}
  20.0084427172132, 3.6576, 0,            !- X,Y,Z Vertex 3 {m}
  20.0084427172132, -3.6576, 0;           !- X,Y,Z Vertex 4 {m}

OS:Surface,
  {6580e2a4-5b4b-47bd-b470-786266c50d95}, !- Handle
  Surface 2,                              !- Name
  Wall,                                   !- Surface Type
  {26bedde6-aa72-497a-a246-a1450d1ce05a}, !- Construction Name
  {afbbcabb-5563-444e-b8f6-4640101aa80e}, !- Space Name
  Surface,                                !- Outside Boundary Condition
  {3777c8e8-ddb8-46d8-9801-03428456f17e}, !- Outside Boundary Condition Object
  NoSun,                                  !- Sun Exposure
  NoWind,                                 !- Wind Exposure
  ,                                       !- View Factor to Ground
  ,                                       !- Number of Vertices
  16.3508427172132, 3.6576, 2.4384,       !- X,Y,Z Vertex 1 {m}
  16.3508427172132, 3.6576, 0,            !- X,Y,Z Vertex 2 {m}
  16.3508427172132, 0, 0,                 !- X,Y,Z Vertex 3 {m}
  16.3508427172132, 0, 2.4384;            !- X,Y,Z Vertex 4 {m}

OS:Surface,
  {9db1e4bd-75aa-422f-9faa-286726d6bbfc}, !- Handle
  Surface 3,                              !- Name
  Wall,                                   !- Surface Type
  {26bedde6-aa72-497a-a246-a1450d1ce05a}, !- Construction Name
  {afbbcabb-5563-444e-b8f6-4640101aa80e}, !- Space Name
  Surface,                                !- Outside Boundary Condition
  {328fa143-32f2-431f-8e7e-afc9031ef80b}, !- Outside Boundary Condition Object
  NoSun,                                  !- Sun Exposure
  NoWind,                                 !- Wind Exposure
  ,                                       !- View Factor to Ground
  ,                                       !- Number of Vertices
  20.0084427172132, 3.6576, 2.4384,       !- X,Y,Z Vertex 1 {m}
  20.0084427172132, 3.6576, 0,            !- X,Y,Z Vertex 2 {m}
  16.3508427172132, 3.6576, 0,            !- X,Y,Z Vertex 3 {m}
  16.3508427172132, 3.6576, 2.4384;       !- X,Y,Z Vertex 4 {m}

OS:Surface,
  {131f61da-54d4-4ca6-bab7-831405db3712}, !- Handle
  Surface 4,                              !- Name
  Wall,                                   !- Surface Type
  {485faba9-be3f-4847-ad90-c19d25dac9ad}, !- Construction Name
  {afbbcabb-5563-444e-b8f6-4640101aa80e}, !- Space Name
  Outdoors,                               !- Outside Boundary Condition
  ,                                       !- Outside Boundary Condition Object
  SunExposed,                             !- Sun Exposure
  WindExposed,                            !- Wind Exposure
  ,                                       !- View Factor to Ground
  ,                                       !- Number of Vertices
  20.0084427172132, -3.6576, 2.4384,      !- X,Y,Z Vertex 1 {m}
  20.0084427172132, -3.6576, 0,           !- X,Y,Z Vertex 2 {m}
  20.0084427172132, 3.6576, 0,            !- X,Y,Z Vertex 3 {m}
  20.0084427172132, 3.6576, 2.4384;       !- X,Y,Z Vertex 4 {m}

OS:Surface,
  {7546cf27-eaa5-4ee9-b3b3-1d9cf8f1f005}, !- Handle
  Surface 5,                              !- Name
  Wall,                                   !- Surface Type
  {485faba9-be3f-4847-ad90-c19d25dac9ad}, !- Construction Name
  {afbbcabb-5563-444e-b8f6-4640101aa80e}, !- Space Name
  Outdoors,                               !- Outside Boundary Condition
  ,                                       !- Outside Boundary Condition Object
  SunExposed,                             !- Sun Exposure