!- NOTE: Auto-generated from /test/osw_files/SFD_2story_CS_UA_AC2_FuelBoiler_FuelTankWH.osw

OS:Version,
  {c4498837-81a2-4cae-9901-67e12907a540}, !- Handle
  2.7.0;                                  !- Version Identifier

OS:SimulationControl,
  {4ceffacb-d9ba-4cb1-a06e-b44f941cc535}, !- Handle
  ,                                       !- Do Zone Sizing Calculation
  ,                                       !- Do System Sizing Calculation
  ,                                       !- Do Plant Sizing Calculation
  No;                                     !- Run Simulation for Sizing Periods

OS:Timestep,
  {c97eeb65-9fe9-451f-8460-362b57995701}, !- Handle
  6;                                      !- Number of Timesteps per Hour

OS:ShadowCalculation,
  {80bfdc37-8c49-4bbb-8d80-e0f0e4f1b822}, !- Handle
  20,                                     !- Calculation Frequency
  200;                                    !- Maximum Figures in Shadow Overlap Calculations

OS:SurfaceConvectionAlgorithm:Outside,
  {a8a04603-392b-47b0-846e-f7e327ce2272}, !- Handle
  DOE-2;                                  !- Algorithm

OS:SurfaceConvectionAlgorithm:Inside,
  {2e86e5eb-ab97-4bfb-9914-4f138aad45ad}, !- Handle
  TARP;                                   !- Algorithm

OS:ZoneCapacitanceMultiplier:ResearchSpecial,
  {c1ce42ff-2dec-4fd3-ae12-0986b0c6efd9}, !- Handle
  ,                                       !- Temperature Capacity Multiplier
  15,                                     !- Humidity Capacity Multiplier
  ;                                       !- Carbon Dioxide Capacity Multiplier

OS:RunPeriod,
  {c4ab96a3-8d55-428b-baf9-d547394b7228}, !- Handle
  Run Period 1,                           !- Name
  1,                                      !- Begin Month
  1,                                      !- Begin Day of Month
  12,                                     !- End Month
  31,                                     !- End Day of Month
  ,                                       !- Use Weather File Holidays and Special Days
  ,                                       !- Use Weather File Daylight Saving Period
  ,                                       !- Apply Weekend Holiday Rule
  ,                                       !- Use Weather File Rain Indicators
  ,                                       !- Use Weather File Snow Indicators
  ;                                       !- Number of Times Runperiod to be Repeated

OS:WeatherFile,
  {ebd1993e-8bdc-4db3-a27e-4e8f21066176}, !- Handle
  Denver Intl Ap,                         !- City
  CO,                                     !- State Province Region
  USA,                                    !- Country
  TMY3,                                   !- Data Source
  725650,                                 !- WMO Number
  39.83,                                  !- Latitude {deg}
  -104.65,                                !- Longitude {deg}
  -7,                                     !- Time Zone {hr}
  1650,                                   !- Elevation {m}
  file:../tests/USA_CO_Denver_Intl_AP_725650_TMY3.epw, !- Url
  E23378AA;                               !- Checksum

OS:AdditionalProperties,
  {fc3c6c96-a9c7-455a-a884-99aee9a8cb63}, !- Handle
  {ebd1993e-8bdc-4db3-a27e-4e8f21066176}, !- Object Name
  EPWHeaderCity,                          !- Feature Name 1
  String,                                 !- Feature Data Type 1
  Denver Intl Ap,                         !- Feature Value 1
  EPWHeaderState,                         !- Feature Name 2
  String,                                 !- Feature Data Type 2
  CO,                                     !- Feature Value 2
  EPWHeaderCountry,                       !- Feature Name 3
  String,                                 !- Feature Data Type 3
  USA,                                    !- Feature Value 3
  EPWHeaderDataSource,                    !- Feature Name 4
  String,                                 !- Feature Data Type 4
  TMY3,                                   !- Feature Value 4
  EPWHeaderStation,                       !- Feature Name 5
  String,                                 !- Feature Data Type 5
  725650,                                 !- Feature Value 5
  EPWHeaderLatitude,                      !- Feature Name 6
  Double,                                 !- Feature Data Type 6
  39.829999999999998,                     !- Feature Value 6
  EPWHeaderLongitude,                     !- Feature Name 7
  Double,                                 !- Feature Data Type 7
  -104.65000000000001,                    !- Feature Value 7
  EPWHeaderTimezone,                      !- Feature Name 8
  Double,                                 !- Feature Data Type 8
  -7,                                     !- Feature Value 8
  EPWHeaderAltitude,                      !- Feature Name 9
  Double,                                 !- Feature Data Type 9
  5413.3858267716532,                     !- Feature Value 9
  EPWHeaderLocalPressure,                 !- Feature Name 10
  Double,                                 !- Feature Data Type 10
  0.81937567683596546,                    !- Feature Value 10
  EPWHeaderRecordsPerHour,                !- Feature Name 11
  Double,                                 !- Feature Data Type 11
  1,                                      !- Feature Value 11
  EPWDataAnnualAvgDrybulb,                !- Feature Name 12
  Double,                                 !- Feature Data Type 12
  51.575616438356228,                     !- Feature Value 12
  EPWDataAnnualMinDrybulb,                !- Feature Name 13
  Double,                                 !- Feature Data Type 13
  -2.9200000000000017,                    !- Feature Value 13
  EPWDataAnnualMaxDrybulb,                !- Feature Name 14
  Double,                                 !- Feature Data Type 14
  104,                                    !- Feature Value 14
  EPWDataCDD50F,                          !- Feature Name 15
  Double,                                 !- Feature Data Type 15
  3072.2925000000005,                     !- Feature Value 15
  EPWDataCDD65F,                          !- Feature Name 16
  Double,                                 !- Feature Data Type 16
  883.62000000000035,                     !- Feature Value 16
  EPWDataHDD50F,                          !- Feature Name 17
  Double,                                 !- Feature Data Type 17
  2497.1925000000001,                     !- Feature Value 17
  EPWDataHDD65F,                          !- Feature Name 18
  Double,                                 !- Feature Data Type 18
  5783.5200000000013,                     !- Feature Value 18
  EPWDataAnnualAvgWindspeed,              !- Feature Name 19
  Double,                                 !- Feature Data Type 19
  3.9165296803649667,                     !- Feature Value 19
  EPWDataMonthlyAvgDrybulbs,              !- Feature Name 20
  String,                                 !- Feature Data Type 20
  33.4191935483871&#4431.90142857142857&#4443.02620967741937&#4442.48624999999999&#4459.877741935483854&#4473.57574999999997&#4472.07975806451608&#4472.70008064516134&#4466.49200000000006&#4450.079112903225806&#4437.218250000000005&#4434.582177419354835, !- Feature Value 20
  EPWDataGroundMonthlyTemps,              !- Feature Name 21
  String,                                 !- Feature Data Type 21
  44.08306285945173&#4440.89570904991865&#4440.64045432632048&#4442.153016571250646&#4448.225111118704206&#4454.268919273837525&#4459.508577937551024&#4462.82777283423508&#4463.10975667174995&#4460.41014950381947&#4455.304105212311526&#4449.445696474514364, !- Feature Value 21
  EPWDataWSF,                             !- Feature Name 22
  Double,                                 !- Feature Data Type 22
  0.58999999999999997,                    !- Feature Value 22
  EPWDataMonthlyAvgDailyHighDrybulbs,     !- Feature Name 23
  String,                                 !- Feature Data Type 23
  47.41032258064516&#4446.58642857142857&#4455.15032258064517&#4453.708&#4472.80193548387098&#4488.67600000000002&#4486.1858064516129&#4485.87225806451613&#4482.082&#4463.18064516129033&#4448.73400000000001&#4448.87935483870968, !- Feature Value 23
  EPWDataMonthlyAvgDailyLowDrybulbs,      !- Feature Name 24
  String,                                 !- Feature Data Type 24
  19.347741935483874&#4419.856428571428573&#4430.316129032258065&#4431.112&#4447.41612903225806&#4457.901999999999994&#4459.063870967741934&#4460.956774193548384&#4452.352000000000004&#4438.41612903225806&#4427.002000000000002&#4423.02903225806451, !- Feature Value 24
  EPWDesignHeatingDrybulb,                !- Feature Name 25
  Double,                                 !- Feature Data Type 25
  6.8000000000000007,                     !- Feature Value 25
  EPWDesignHeatingWindspeed,              !- Feature Name 26
  Double,                                 !- Feature Data Type 26
  12,                                     !- Feature Value 26
  EPWDesignCoolingDrybulb,                !- Feature Name 27
  Double,                                 !- Feature Data Type 27
  91.760000000000005,                     !- Feature Value 27
  EPWDesignCoolingWetbulb,                !- Feature Name 28
  Double,                                 !- Feature Data Type 28
  60.079999999999998,                     !- Feature Value 28
  EPWDesignCoolingHumidityRatio,          !- Feature Name 29
  Double,                                 !- Feature Data Type 29
  0.006050392196571398,                   !- Feature Value 29
  EPWDesignCoolingWindspeed,              !- Feature Name 30
  Double,                                 !- Feature Data Type 30
  4.2000000000000002,                     !- Feature Value 30
  EPWDesignDailyTemperatureRange,         !- Feature Name 31
  Double,                                 !- Feature Data Type 31
  27.359999999999999,                     !- Feature Value 31
  EPWDesignDehumidDrybulb,                !- Feature Name 32
  Double,                                 !- Feature Data Type 32
  67.280000000000001,                     !- Feature Value 32
  EPWDesignDehumidHumidityRatio,          !- Feature Name 33
  Double,                                 !- Feature Data Type 33
  0.012295426899271008,                   !- Feature Value 33
  EPWDesignCoolingDirectNormal,           !- Feature Name 34
  Double,                                 !- Feature Data Type 34
  985,                                    !- Feature Value 34
  EPWDesignCoolingDiffuseHorizontal,      !- Feature Name 35
  Double,                                 !- Feature Data Type 35
  84;                                     !- Feature Value 35

OS:YearDescription,
  {efb2ba92-0225-4bcf-a664-668c3d6a78c3}, !- Handle
  ,                                       !- Calendar Year
  Monday;                                 !- Day of Week for Start Day

OS:Site,
  {6d044fc7-0422-438f-9e5f-e818ddb45660}, !- Handle
  Denver Intl Ap_CO_USA,                  !- Name
  39.83,                                  !- Latitude {deg}
  -104.65,                                !- Longitude {deg}
  -7,                                     !- Time Zone {hr}
  1650,                                   !- Elevation {m}
  Suburbs;                                !- Terrain

OS:ClimateZones,
  {a28adbd3-0774-4424-a17d-276b134bc9ed}, !- Handle
  ,                                       !- Active Institution
  ,                                       !- Active Year
  ,                                       !- Climate Zone Institution Name 1
  ,                                       !- Climate Zone Document Name 1
  ,                                       !- Climate Zone Document Year 1
  ,                                       !- Climate Zone Value 1
  Building America,                       !- Climate Zone Institution Name 2
  ,                                       !- Climate Zone Document Name 2
  0,                                      !- Climate Zone Document Year 2
  Cold;                                   !- Climate Zone Value 2

OS:Site:WaterMainsTemperature,
  {c2b5ff8e-98a7-4932-8326-b5cfcde776de}, !- Handle
  Correlation,                            !- Calculation Method
  ,                                       !- Temperature Schedule Name
  10.8753424657535,                       !- Annual Average Outdoor Air Temperature {C}
  23.1524007936508;                       !- Maximum Difference In Monthly Average Outdoor Air Temperatures {deltaC}

OS:RunPeriodControl:DaylightSavingTime,
  {a9bed0c1-715e-4421-b423-c9c80c69e22d}, !- Handle
  4/7,                                    !- Start Date
  10/26;                                  !- End Date

OS:Site:GroundTemperature:Deep,
  {7e20bd80-f931-443f-a3d2-09c863bff5fb}, !- Handle
  10.8753424657535,                       !- January Deep Ground Temperature {C}
  10.8753424657535,                       !- February Deep Ground Temperature {C}
  10.8753424657535,                       !- March Deep Ground Temperature {C}
  10.8753424657535,                       !- April Deep Ground Temperature {C}
  10.8753424657535,                       !- May Deep Ground Temperature {C}
  10.8753424657535,                       !- June Deep Ground Temperature {C}
  10.8753424657535,                       !- July Deep Ground Temperature {C}
  10.8753424657535,                       !- August Deep Ground Temperature {C}
  10.8753424657535,                       !- September Deep Ground Temperature {C}
  10.8753424657535,                       !- October Deep Ground Temperature {C}
  10.8753424657535,                       !- November Deep Ground Temperature {C}
  10.8753424657535;                       !- December Deep Ground Temperature {C}

OS:ThermalZone,
  {441d6280-f08a-4bfb-be26-a4ffa7adb00c}, !- Handle
  living zone,                            !- Name
  ,                                       !- Multiplier
  ,                                       !- Ceiling Height {m}
  ,                                       !- Volume {m3}
  ,                                       !- Floor Area {m2}
  ,                                       !- Zone Inside Convection Algorithm
  ,                                       !- Zone Outside Convection Algorithm
  ,                                       !- Zone Conditioning Equipment List Name
  {308ba00b-e5e2-4f1b-a3cb-2cdb0e9db961}, !- Zone Air Inlet Port List
  {14b5f979-e05d-4d8b-b2b8-5dfabbdcfb0d}, !- Zone Air Exhaust Port List
  {c7ca1fc4-76e9-4b42-9a29-5ccc15944623}, !- Zone Air Node Name
  {5e14e8ff-98ab-43ec-95be-5d9f02b6a23d}, !- Zone Return Air Port List
  ,                                       !- Primary Daylighting Control Name
  ,                                       !- Fraction of Zone Controlled by Primary Daylighting Control
  ,                                       !- Secondary Daylighting Control Name
  ,                                       !- Fraction of Zone Controlled by Secondary Daylighting Control
  ,                                       !- Illuminance Map Name
  ,                                       !- Group Rendering Name
  {94877cc4-3c72-49e4-a5dc-0f20d8f7a4d3}, !- Thermostat Name
  No;                                     !- Use Ideal Air Loads

OS:Node,
  {9acdb214-76c0-41a2-9bc4-aa2610ac0cce}, !- Handle
  Node 1,                                 !- Name
  {c7ca1fc4-76e9-4b42-9a29-5ccc15944623}, !- Inlet Port
  ;                                       !- Outlet Port

OS:Connection,
  {c7ca1fc4-76e9-4b42-9a29-5ccc15944623}, !- Handle
  {81d45dea-33b9-43ad-9428-0eeb07089fb3}, !- Name
  {441d6280-f08a-4bfb-be26-a4ffa7adb00c}, !- Source Object
  11,                                     !- Outlet Port
  {9acdb214-76c0-41a2-9bc4-aa2610ac0cce}, !- Target Object
  2;                                      !- Inlet Port

OS:PortList,
  {308ba00b-e5e2-4f1b-a3cb-2cdb0e9db961}, !- Handle
  {48b31638-9a89-4cda-85a5-a9799bb1deb6}, !- Name
  {441d6280-f08a-4bfb-be26-a4ffa7adb00c}, !- HVAC Component
  {6d8cc84d-8639-4280-91cd-939d290a8f31}; !- Port 1

OS:PortList,
  {14b5f979-e05d-4d8b-b2b8-5dfabbdcfb0d}, !- Handle
  {d635fdf0-3426-4324-9453-2932af37f9d4}, !- Name
  {441d6280-f08a-4bfb-be26-a4ffa7adb00c}; !- HVAC Component

OS:PortList,
  {5e14e8ff-98ab-43ec-95be-5d9f02b6a23d}, !- Handle
  {f88d6943-dbbe-4d80-87eb-8910707aa6a1}, !- Name
  {441d6280-f08a-4bfb-be26-a4ffa7adb00c}, !- HVAC Component
  {1537e61d-a28c-4ff9-9cd0-b1bd16d02270}; !- Port 1

OS:Sizing:Zone,
  {dbe83356-64b3-4dcf-89b6-f6033bcd014c}, !- Handle
  {441d6280-f08a-4bfb-be26-a4ffa7adb00c}, !- Zone or ZoneList Name
  SupplyAirTemperature,                   !- Zone Cooling Design Supply Air Temperature Input Method
  14,                                     !- Zone Cooling Design Supply Air Temperature {C}
  11.11,                                  !- Zone Cooling Design Supply Air Temperature Difference {deltaC}
  SupplyAirTemperature,                   !- Zone Heating Design Supply Air Temperature Input Method
  40,                                     !- Zone Heating Design Supply Air Temperature {C}
  11.11,                                  !- Zone Heating Design Supply Air Temperature Difference {deltaC}
  0.0085,                                 !- Zone Cooling Design Supply Air Humidity Ratio {kg-H2O/kg-air}
  0.008,                                  !- Zone Heating Design Supply Air Humidity Ratio {kg-H2O/kg-air}
  ,                                       !- Zone Heating Sizing Factor
  ,                                       !- Zone Cooling Sizing Factor
  DesignDay,                              !- Cooling Design Air Flow Method
  ,                                       !- Cooling Design Air Flow Rate {m3/s}
  ,                                       !- Cooling Minimum Air Flow per Zone Floor Area {m3/s-m2}
  ,                                       !- Cooling Minimum Air Flow {m3/s}
  ,                                       !- Cooling Minimum Air Flow Fraction
  DesignDay,                              !- Heating Design Air Flow Method
  ,                                       !- Heating Design Air Flow Rate {m3/s}
  ,                                       !- Heating Maximum Air Flow per Zone Floor Area {m3/s-m2}
  ,                                       !- Heating Maximum Air Flow {m3/s}
  ,                                       !- Heating Maximum Air Flow Fraction
  ,                                       !- Design Zone Air Distribution Effectiveness in Cooling Mode
  ,                                       !- Design Zone Air Distribution Effectiveness in Heating Mode
  No,                                     !- Account for Dedicated Outdoor Air System
  NeutralSupplyAir,                       !- Dedicated Outdoor Air System Control Strategy
  autosize,                               !- Dedicated Outdoor Air Low Setpoint Temperature for Design {C}
  autosize;                               !- Dedicated Outdoor Air High Setpoint Temperature for Design {C}

OS:ZoneHVAC:EquipmentList,
  {02f65740-28eb-4d13-a8d8-d25fe0ad0408}, !- Handle
  Zone HVAC Equipment List 1,             !- Name
  {441d6280-f08a-4bfb-be26-a4ffa7adb00c}, !- Thermal Zone
  ,                                       !- Load Distribution Scheme
  {5726898e-b5ac-4c4d-9c1a-4a1d30449553}, !- Zone Equipment 1
  1,                                      !- Zone Equipment Cooling Sequence 1
  1,                                      !- Zone Equipment Heating or No-Load Sequence 1
  {ffc0e861-8225-4a7e-a64a-2c9bc0ba56d7}, !- Zone Equipment 2
  2,                                      !- Zone Equipment Cooling Sequence 2
  2;                                      !- Zone Equipment Heating or No-Load Sequence 2

OS:Space,
  {ab9b21b3-08b4-4fce-b139-27f7f2087764}, !- Handle
  living space,                           !- Name
  {5aea3540-d37b-456c-9d97-7586197f34a6}, !- Space Type Name
  ,                                       !- Default Construction Set Name
  ,                                       !- Default Schedule Set Name
  -0,                                     !- Direction of Relative North {deg}
  0,                                      !- X Origin {m}
  0,                                      !- Y Origin {m}
  0,                                      !- Z Origin {m}
  ,                                       !- Building Story Name
  {441d6280-f08a-4bfb-be26-a4ffa7adb00c}, !- Thermal Zone Name
  ,                                       !- Part of Total Floor Area
  ,                                       !- Design Specification Outdoor Air Object Name
  {0f3b3eb7-fd5b-487e-a9c1-f2052be3d821}; !- Building Unit Name

OS:Surface,
  {faee3e71-03b1-40cd-92a5-22395351bbd8}, !- Handle
  Surface 1,                              !- Name
  Floor,                                  !- Surface Type
  {a26abd80-74b2-4cd8-8366-cf66cdeb9bf0}, !- Construction Name
  {ab9b21b3-08b4-4fce-b139-27f7f2087764}, !- Space Name
  Surface,                                !- Outside Boundary Condition
  {66446e0b-1766-4e36-b945-2d7b40f7b1ba}, !- Outside Boundary Condition Object
  NoSun,                                  !- Sun Exposure
  NoWind,                                 !- Wind Exposure
  ,                                       !- View Factor to Ground
  ,                                       !- Number of Vertices
  0, 0, 0,                                !- X,Y,Z Vertex 1 {m}
  0, 7.18420489685532, 0,                 !- X,Y,Z Vertex 2 {m}
  12.9315688143396, 7.18420489685532, 0,  !- X,Y,Z Vertex 3 {m}
  12.9315688143396, 0, 0;                 !- X,Y,Z Vertex 4 {m}

OS:Surface,
  {052f06c3-3ae9-4078-a45e-1491cec515f0}, !- Handle
  Surface 2,                              !- Name
  Wall,                                   !- Surface Type
  {ae35855d-3094-4be8-bd5f-a10f603720fc}, !- Construction Name
  {ab9b21b3-08b4-4fce-b139-27f7f2087764}, !- Space Name
  Outdoors,                               !- Outside Boundary Condition
  ,                                       !- Outside Boundary Condition Object
  SunExposed,                             !- Sun Exposure
  WindExposed,                            !- Wind Exposure
  ,                                       !- View Factor to Ground
  ,                                       !- Number of Vertices
  0, 7.18420489685532, 2.4384,            !- X,Y,Z Vertex 1 {m}
  0, 7.18420489685532, 0,                 !- X,Y,Z Vertex 2 {m}
  0, 0, 0,                                !- X,Y,Z Vertex 3 {m}
  0, 0, 2.4384;                           !- X,Y,Z Vertex 4 {m}

OS:Surface,
  {e85edf8b-a734-45fa-9d13-6f0a3be3a3bd}, !- Handle
  Surface 3,                              !- Name
  Wall,                                   !- Surface Type
  {ae35855d-3094-4be8-bd5f-a10f603720fc}, !- Construction Name
  {ab9b21b3-08b4-4fce-b139-27f7f2087764}, !- Space Name
  Outdoors,                               !- Outside Boundary Condition
  ,                                       !- Outside Boundary Condition Object
  SunExposed,                             !- Sun Exposure
  WindExposed,                            !- Wind Exposure
  ,                                       !- View Factor to Ground
  ,                                       !- Number of Vertices
  12.9315688143396, 7.18420489685532, 2.4384, !- X,Y,Z Vertex 1 {m}
  12.9315688143396, 7.18420489685532, 0,  !- X,Y,Z Vertex 2 {m}
  0, 7.18420489685532, 0,                 !- X,Y,Z Vertex 3 {m}
  0, 7.18420489685532, 2.4384;            !- X,Y,Z Vertex 4 {m}

OS:Surface,
  {860e500c-32e6-42c6-b5ea-d2ebefe872ca}, !- Handle
  Surface 4,                              !- Name
  Wall,                                   !- Surface Type
  {ae35855d-3094-4be8-bd5f-a10f603720fc}, !- Construction Name
  {ab9b21b3-08b4-4fce-b139-27f7f2087764}, !- Space Name
  Outdoors,                               !- Outside Boundary Condition
  ,                                       !- Outside Boundary Condition Object
  SunExposed,                             !- Sun Exposure
  WindExposed,                            !- Wind Exposure
  ,                                       !- View Factor to Ground
  ,                                       !- Number of Vertices
  12.9315688143396, 0, 2.4384,            !- X,Y,Z Vertex 1 {m}
  12.9315688143396, 0, 0,                 !- X,Y,Z Vertex 2 {m}
  12.9315688143396, 7.18420489685532, 0,  !- X,Y,Z Vertex 3 {m}
  12.9315688143396, 7.18420489685532, 2.4384; !- X,Y,Z Vertex 4 {m}

OS:Surface,
  {ac5aef2b-be4e-4e61-aff5-e39f453f9d35}, !- Handle
  Surface 5,                              !- Name
  Wall,                                   !- Surface Type
  {ae35855d-3094-4be8-bd5f-a10f603720fc}, !- Construction Name
  {ab9b21b3-08b4-4fce-b139-27f7f2087764}, !- Space Name
  Outdoors,                               !- Outside Boundary Condition
  ,                                       !- Outside Boundary Condition Object
  SunExposed,                             !- Sun Exposure
  WindExposed,                            !- Wind Exposure
  ,                                       !- View Factor to Ground
  ,                                       !- Number of Vertices
  12.9315688143396, 0, 0,                 !- X,Y,Z Vertex 1 {m}
  12.9315688143396, 0, 2.4384,            !- X,Y,Z Vertex 2 {m}
  1.04865714285714, 0, 2.4384,            !- X,Y,Z Vertex 3 {m}
  1.04865714285714, 0, 0;                 !- X,Y,Z Vertex 4 {m}

OS:Surface,
  {026edc8e-fc3d-4d65-8240-866e52cb1c04}, !- Handle
  Surface 6,                              !- Name
  RoofCeiling,                            !- Surface Type
  {59ffc3df-af30-4b39-88e7-d1d953e5927d}, !- Construction Name
  {ab9b21b3-08b4-4fce-b139-27f7f2087764}, !- Space Name
  Surface,                                !- Outside Boundary Condition
  {b3c67231-daac-44b9-99b9-7e05d9268254}, !- Outside Boundary Condition Object
  NoSun,                                  !- Sun Exposure
  NoWind,                                 !- Wind Exposure
  ,                                       !- View Factor to Ground
  ,                                       !- Number of Vertices
  12.9315688143396, 0, 2.4384,            !- X,Y,Z Vertex 1 {m}
  12.9315688143396, 7.18420489685532, 2.4384, !- X,Y,Z Vertex 2 {m}
  0, 7.18420489685532, 2.4384,            !- X,Y,Z Vertex 3 {m}
  0, 0, 2.4384;                           !- X,Y,Z Vertex 4 {m}

OS:SpaceType,
  {5aea3540-d37b-456c-9d97-7586197f34a6}, !- Handle
  Space Type 1,                           !- Name
  ,                                       !- Default Construction Set Name
  ,                                       !- Default Schedule Set Name
  ,                                       !- Group Rendering Name
  ,                                       !- Design Specification Outdoor Air Object Name
  ,                                       !- Standards Template
  ,                                       !- Standards Building Type
  living;                                 !- Standards Space Type

OS:Space,
  {742c9c55-023f-49e9-a1c3-553ea6176c81}, !- Handle
  living space|story 2,                   !- Name
  {5aea3540-d37b-456c-9d97-7586197f34a6}, !- Space Type Name
  ,                                       !- Default Construction Set Name
  ,                                       !- Default Schedule Set Name
  -0,                                     !- Direction of Relative North {deg}
  0,                                      !- X Origin {m}
  0,                                      !- Y Origin {m}
  2.4384,                                 !- Z Origin {m}
  ,                                       !- Building Story Name
  {441d6280-f08a-4bfb-be26-a4ffa7adb00c}, !- Thermal Zone Name
  ,                                       !- Part of Total Floor Area
  ,                                       !- Design Specification Outdoor Air Object Name
  {0f3b3eb7-fd5b-487e-a9c1-f2052be3d821}; !- Building Unit Name

OS:Surface,
  {b3c67231-daac-44b9-99b9-7e05d9268254}, !- Handle
  Surface 7,                              !- Name
  Floor,                                  !- Surface Type
  {8bcc5cf9-0e1d-47e5-b75b-532aaf0ba197}, !- Construction Name
  {742c9c55-023f-49e9-a1c3-553ea6176c81}, !- Space Name
  Surface,                                !- Outside Boundary Condition
  {026edc8e-fc3d-4d65-8240-866e52cb1c04}, !- Outside Boundary Condition Object
  NoSun,                                  !- Sun Exposure
  NoWind,                                 !- Wind Exposure
  ,                                       !- View Factor to Ground
  ,                                       !- Number of Vertices
  0, 0, 0,                                !- X,Y,Z Vertex 1 {m}
  0, 7.18420489685532, 0,                 !- X,Y,Z Vertex 2 {m}
  12.9315688143396, 7.18420489685532, 0,  !- X,Y,Z Vertex 3 {m}
  12.9315688143396, 0, 0;                 !- X,Y,Z Vertex 4 {m}

OS:Surface,
  {f90af470-96b6-4e59-80f4-310d87003f1f}, !- Handle
  Surface 8,                              !- Name
  Wall,                                   !- Surface Type
  {ae35855d-3094-4be8-bd5f-a10f603720fc}, !- Construction Name
  {742c9c55-023f-49e9-a1c3-553ea6176c81}, !- Space Name
  Outdoors,                               !- Outside Boundary Condition
  ,                                       !- Outside Boundary Condition Object
  SunExposed,                             !- Sun Exposure
  WindExposed,                            !- Wind Exposure
  ,                                       !- View Factor to Ground
  ,                                       !- Number of Vertices
  0, 7.18420489685532, 2.4384,            !- X,Y,Z Vertex 1 {m}
  0, 7.18420489685532, 0,                 !- X,Y,Z Vertex 2 {m}
  0, 0, 0,                                !- X,Y,Z Vertex 3 {m}
  0, 0, 2.4384;                           !- X,Y,Z Vertex 4 {m}

OS:Surface,
  {62d955b6-432d-4b65-9bef-2ac215c03fb1}, !- Handle
  Surface 9,                              !- Name
  Wall,                                   !- Surface Type
  {ae35855d-3094-4be8-bd5f-a10f603720fc}, !- Construction Name