!- NOTE: Auto-generated from /test/osw_files/SFD_2story_FB_UA_GRG_AC1_UnitHeater_FuelTankWH.osw

OS:Version,
  {962980b6-b56e-4642-b951-2c66125ab464}, !- Handle
  2.7.0;                                  !- Version Identifier

OS:SimulationControl,
  {c7078005-4a63-4ff5-bb0e-597a2e0f6022}, !- Handle
  ,                                       !- Do Zone Sizing Calculation
  ,                                       !- Do System Sizing Calculation
  ,                                       !- Do Plant Sizing Calculation
  No;                                     !- Run Simulation for Sizing Periods

OS:Timestep,
  {6e98e786-bcd4-41ba-9284-32056dd9c706}, !- Handle
  6;                                      !- Number of Timesteps per Hour

OS:ShadowCalculation,
  {a86de74a-83c9-48ae-a98c-92659ac276f5}, !- Handle
  20,                                     !- Calculation Frequency
  200;                                    !- Maximum Figures in Shadow Overlap Calculations

OS:SurfaceConvectionAlgorithm:Outside,
  {8e583b6e-4204-43b8-b17d-63f92acd2629}, !- Handle
  DOE-2;                                  !- Algorithm

OS:SurfaceConvectionAlgorithm:Inside,
  {8dd1f205-07c1-4acb-bb2d-cb96caaa5acb}, !- Handle
  TARP;                                   !- Algorithm

OS:ZoneCapacitanceMultiplier:ResearchSpecial,
  {bf3bc147-0306-40c7-8e6f-ee79d4a23b6b}, !- Handle
  ,                                       !- Temperature Capacity Multiplier
  15,                                     !- Humidity Capacity Multiplier
  ;                                       !- Carbon Dioxide Capacity Multiplier

OS:RunPeriod,
  {ed139840-da88-45ef-afc3-1350c7ceebed}, !- Handle
  Run Period 1,                           !- Name
  1,                                      !- Begin Month
  1,                                      !- Begin Day of Month
  12,                                     !- End Month
  31,                                     !- End Day of Month
  ,                                       !- Use Weather File Holidays and Special Days
  ,                                       !- Use Weather File Daylight Saving Period
  ,                                       !- Apply Weekend Holiday Rule
  ,                                       !- Use Weather File Rain Indicators
  ,                                       !- Use Weather File Snow Indicators
  ;                                       !- Number of Times Runperiod to be Repeated

OS:WeatherFile,
  {64413819-cf75-4ce5-a9d1-bf550fb472f9}, !- Handle
  Denver Intl Ap,                         !- City
  CO,                                     !- State Province Region
  USA,                                    !- Country
  TMY3,                                   !- Data Source
  725650,                                 !- WMO Number
  39.83,                                  !- Latitude {deg}
  -104.65,                                !- Longitude {deg}
  -7,                                     !- Time Zone {hr}
  1650,                                   !- Elevation {m}
  file:../tests/USA_CO_Denver_Intl_AP_725650_TMY3.epw, !- Url
  E23378AA;                               !- Checksum

OS:AdditionalProperties,
  {7c0c04ac-34bf-4e89-ad3d-29ef28aaa78c}, !- Handle
  {64413819-cf75-4ce5-a9d1-bf550fb472f9}, !- Object Name
  EPWHeaderCity,                          !- Feature Name 1
  String,                                 !- Feature Data Type 1
  Denver Intl Ap,                         !- Feature Value 1
  EPWHeaderState,                         !- Feature Name 2
  String,                                 !- Feature Data Type 2
  CO,                                     !- Feature Value 2
  EPWHeaderCountry,                       !- Feature Name 3
  String,                                 !- Feature Data Type 3
  USA,                                    !- Feature Value 3
  EPWHeaderDataSource,                    !- Feature Name 4
  String,                                 !- Feature Data Type 4
  TMY3,                                   !- Feature Value 4
  EPWHeaderStation,                       !- Feature Name 5
  String,                                 !- Feature Data Type 5
  725650,                                 !- Feature Value 5
  EPWHeaderLatitude,                      !- Feature Name 6
  Double,                                 !- Feature Data Type 6
  39.829999999999998,                     !- Feature Value 6
  EPWHeaderLongitude,                     !- Feature Name 7
  Double,                                 !- Feature Data Type 7
  -104.65000000000001,                    !- Feature Value 7
  EPWHeaderTimezone,                      !- Feature Name 8
  Double,                                 !- Feature Data Type 8
  -7,                                     !- Feature Value 8
  EPWHeaderAltitude,                      !- Feature Name 9
  Double,                                 !- Feature Data Type 9
  5413.3858267716532,                     !- Feature Value 9
  EPWHeaderLocalPressure,                 !- Feature Name 10
  Double,                                 !- Feature Data Type 10
  0.81937567683596546,                    !- Feature Value 10
  EPWHeaderRecordsPerHour,                !- Feature Name 11
  Double,                                 !- Feature Data Type 11
  1,                                      !- Feature Value 11
  EPWDataAnnualAvgDrybulb,                !- Feature Name 12
  Double,                                 !- Feature Data Type 12
  51.575616438356228,                     !- Feature Value 12
  EPWDataAnnualMinDrybulb,                !- Feature Name 13
  Double,                                 !- Feature Data Type 13
  -2.9200000000000017,                    !- Feature Value 13
  EPWDataAnnualMaxDrybulb,                !- Feature Name 14
  Double,                                 !- Feature Data Type 14
  104,                                    !- Feature Value 14
  EPWDataCDD50F,                          !- Feature Name 15
  Double,                                 !- Feature Data Type 15
  3072.2925000000005,                     !- Feature Value 15
  EPWDataCDD65F,                          !- Feature Name 16
  Double,                                 !- Feature Data Type 16
  883.62000000000035,                     !- Feature Value 16
  EPWDataHDD50F,                          !- Feature Name 17
  Double,                                 !- Feature Data Type 17
  2497.1925000000001,                     !- Feature Value 17
  EPWDataHDD65F,                          !- Feature Name 18
  Double,                                 !- Feature Data Type 18
  5783.5200000000013,                     !- Feature Value 18
  EPWDataAnnualAvgWindspeed,              !- Feature Name 19
  Double,                                 !- Feature Data Type 19
  3.9165296803649667,                     !- Feature Value 19
  EPWDataMonthlyAvgDrybulbs,              !- Feature Name 20
  String,                                 !- Feature Data Type 20
  33.4191935483871&#4431.90142857142857&#4443.02620967741937&#4442.48624999999999&#4459.877741935483854&#4473.57574999999997&#4472.07975806451608&#4472.70008064516134&#4466.49200000000006&#4450.079112903225806&#4437.218250000000005&#4434.582177419354835, !- Feature Value 20
  EPWDataGroundMonthlyTemps,              !- Feature Name 21
  String,                                 !- Feature Data Type 21
  44.08306285945173&#4440.89570904991865&#4440.64045432632048&#4442.153016571250646&#4448.225111118704206&#4454.268919273837525&#4459.508577937551024&#4462.82777283423508&#4463.10975667174995&#4460.41014950381947&#4455.304105212311526&#4449.445696474514364, !- Feature Value 21
  EPWDataWSF,                             !- Feature Name 22
  Double,                                 !- Feature Data Type 22
  0.58999999999999997,                    !- Feature Value 22
  EPWDataMonthlyAvgDailyHighDrybulbs,     !- Feature Name 23
  String,                                 !- Feature Data Type 23
  47.41032258064516&#4446.58642857142857&#4455.15032258064517&#4453.708&#4472.80193548387098&#4488.67600000000002&#4486.1858064516129&#4485.87225806451613&#4482.082&#4463.18064516129033&#4448.73400000000001&#4448.87935483870968, !- Feature Value 23
  EPWDataMonthlyAvgDailyLowDrybulbs,      !- Feature Name 24
  String,                                 !- Feature Data Type 24
  19.347741935483874&#4419.856428571428573&#4430.316129032258065&#4431.112&#4447.41612903225806&#4457.901999999999994&#4459.063870967741934&#4460.956774193548384&#4452.352000000000004&#4438.41612903225806&#4427.002000000000002&#4423.02903225806451, !- Feature Value 24
  EPWDesignHeatingDrybulb,                !- Feature Name 25
  Double,                                 !- Feature Data Type 25
  6.8000000000000007,                     !- Feature Value 25
  EPWDesignHeatingWindspeed,              !- Feature Name 26
  Double,                                 !- Feature Data Type 26
  12,                                     !- Feature Value 26
  EPWDesignCoolingDrybulb,                !- Feature Name 27
  Double,                                 !- Feature Data Type 27
  91.760000000000005,                     !- Feature Value 27
  EPWDesignCoolingWetbulb,                !- Feature Name 28
  Double,                                 !- Feature Data Type 28
  60.079999999999998,                     !- Feature Value 28
  EPWDesignCoolingHumidityRatio,          !- Feature Name 29
  Double,                                 !- Feature Data Type 29
  0.006050392196571398,                   !- Feature Value 29
  EPWDesignCoolingWindspeed,              !- Feature Name 30
  Double,                                 !- Feature Data Type 30
  4.2000000000000002,                     !- Feature Value 30
  EPWDesignDailyTemperatureRange,         !- Feature Name 31
  Double,                                 !- Feature Data Type 31
  27.359999999999999,                     !- Feature Value 31
  EPWDesignDehumidDrybulb,                !- Feature Name 32
  Double,                                 !- Feature Data Type 32
  67.280000000000001,                     !- Feature Value 32
  EPWDesignDehumidHumidityRatio,          !- Feature Name 33
  Double,                                 !- Feature Data Type 33
  0.012295426899271008,                   !- Feature Value 33
  EPWDesignCoolingDirectNormal,           !- Feature Name 34
  Double,                                 !- Feature Data Type 34
  985,                                    !- Feature Value 34
  EPWDesignCoolingDiffuseHorizontal,      !- Feature Name 35
  Double,                                 !- Feature Data Type 35
  84;                                     !- Feature Value 35

OS:YearDescription,
  {5b90e383-644c-4dc6-b452-caa3765cc0d9}, !- Handle
  ,                                       !- Calendar Year
  Monday;                                 !- Day of Week for Start Day

OS:Site,
  {1b228b32-3cb9-4fe5-9a37-24ffbd373818}, !- Handle
  Denver Intl Ap_CO_USA,                  !- Name
  39.83,                                  !- Latitude {deg}
  -104.65,                                !- Longitude {deg}
  -7,                                     !- Time Zone {hr}
  1650,                                   !- Elevation {m}
  Suburbs;                                !- Terrain

OS:ClimateZones,
  {ba9092b0-5474-4e35-a132-a68861cdc8a1}, !- Handle
  ,                                       !- Active Institution
  ,                                       !- Active Year
  ,                                       !- Climate Zone Institution Name 1
  ,                                       !- Climate Zone Document Name 1
  ,                                       !- Climate Zone Document Year 1
  ,                                       !- Climate Zone Value 1
  Building America,                       !- Climate Zone Institution Name 2
  ,                                       !- Climate Zone Document Name 2
  0,                                      !- Climate Zone Document Year 2
  Cold;                                   !- Climate Zone Value 2

OS:Site:WaterMainsTemperature,
  {44112683-0e6a-4899-8c2a-7927ea9eca95}, !- Handle
  Correlation,                            !- Calculation Method
  ,                                       !- Temperature Schedule Name
  10.8753424657535,                       !- Annual Average Outdoor Air Temperature {C}
  23.1524007936508;                       !- Maximum Difference In Monthly Average Outdoor Air Temperatures {deltaC}

OS:RunPeriodControl:DaylightSavingTime,
  {f64c82fb-deb2-46ca-ade4-5b4ca8fa0fb6}, !- Handle
  4/7,                                    !- Start Date
  10/26;                                  !- End Date

OS:Site:GroundTemperature:Deep,
  {cf8ec921-c39f-4adf-ab99-dffcf45fa461}, !- Handle
  10.8753424657535,                       !- January Deep Ground Temperature {C}
  10.8753424657535,                       !- February Deep Ground Temperature {C}
  10.8753424657535,                       !- March Deep Ground Temperature {C}
  10.8753424657535,                       !- April Deep Ground Temperature {C}
  10.8753424657535,                       !- May Deep Ground Temperature {C}
  10.8753424657535,                       !- June Deep Ground Temperature {C}
  10.8753424657535,                       !- July Deep Ground Temperature {C}
  10.8753424657535,                       !- August Deep Ground Temperature {C}
  10.8753424657535,                       !- September Deep Ground Temperature {C}
  10.8753424657535,                       !- October Deep Ground Temperature {C}
  10.8753424657535,                       !- November Deep Ground Temperature {C}
  10.8753424657535;                       !- December Deep Ground Temperature {C}

OS:ThermalZone,
  {cfe04450-89d4-4ad1-a411-b80dd5996847}, !- Handle
  living zone,                            !- Name
  ,                                       !- Multiplier
  ,                                       !- Ceiling Height {m}
  ,                                       !- Volume {m3}
  ,                                       !- Floor Area {m2}
  ,                                       !- Zone Inside Convection Algorithm
  ,                                       !- Zone Outside Convection Algorithm
  ,                                       !- Zone Conditioning Equipment List Name
  {f22bce6b-3868-4a8c-818e-237e40af0eb0}, !- Zone Air Inlet Port List
  {a3baddec-b0f3-4784-96ee-295b3141169e}, !- Zone Air Exhaust Port List
  {09e202e1-1340-47e8-8f89-b8c09e197c36}, !- Zone Air Node Name
  {8cdd7509-68f7-4caa-aa43-9749b71b6f1b}, !- Zone Return Air Port List
  ,                                       !- Primary Daylighting Control Name
  ,                                       !- Fraction of Zone Controlled by Primary Daylighting Control
  ,                                       !- Secondary Daylighting Control Name
  ,                                       !- Fraction of Zone Controlled by Secondary Daylighting Control
  ,                                       !- Illuminance Map Name
  ,                                       !- Group Rendering Name
  {dea0554e-5993-46d8-be79-438b7e422869}, !- Thermostat Name
  No;                                     !- Use Ideal Air Loads

OS:Node,
  {6fee61fd-f9ea-4eae-943d-bd37e8b6607f}, !- Handle
  Node 1,                                 !- Name
  {09e202e1-1340-47e8-8f89-b8c09e197c36}, !- Inlet Port
  ;                                       !- Outlet Port

OS:Connection,
  {09e202e1-1340-47e8-8f89-b8c09e197c36}, !- Handle
  {a9c2ae4d-6a08-4518-a773-70b3038daf4c}, !- Name
  {cfe04450-89d4-4ad1-a411-b80dd5996847}, !- Source Object
  11,                                     !- Outlet Port
  {6fee61fd-f9ea-4eae-943d-bd37e8b6607f}, !- Target Object
  2;                                      !- Inlet Port

OS:PortList,
  {f22bce6b-3868-4a8c-818e-237e40af0eb0}, !- Handle
  {e36cf4a4-ac6e-42f8-84e7-1acbae9c3ede}, !- Name
  {cfe04450-89d4-4ad1-a411-b80dd5996847}, !- HVAC Component
  {a26d3881-95f8-48d5-b14f-ccb6e3d2545f}, !- Port 1
  {1e81a7ed-470c-4e9b-9fcb-505aa3cb4268}; !- Port 2

OS:PortList,
  {a3baddec-b0f3-4784-96ee-295b3141169e}, !- Handle
  {4203e05e-4d85-4a51-94d5-b45f7a8c0148}, !- Name
  {cfe04450-89d4-4ad1-a411-b80dd5996847}, !- HVAC Component
  {8813922b-081f-45ce-bcc3-b9ab43e9c014}; !- Port 1

OS:PortList,
  {8cdd7509-68f7-4caa-aa43-9749b71b6f1b}, !- Handle
  {ccc71346-21e1-43de-ad52-c27463ac7c07}, !- Name
  {cfe04450-89d4-4ad1-a411-b80dd5996847}, !- HVAC Component
  {59bbdaa7-a1ca-4ef1-bbdd-95d0792862da}; !- Port 1

OS:Sizing:Zone,
  {3cbf3c5b-dfe6-48e9-a748-2f2dcf5b92b3}, !- Handle
  {cfe04450-89d4-4ad1-a411-b80dd5996847}, !- Zone or ZoneList Name
  SupplyAirTemperature,                   !- Zone Cooling Design Supply Air Temperature Input Method
  14,                                     !- Zone Cooling Design Supply Air Temperature {C}
  11.11,                                  !- Zone Cooling Design Supply Air Temperature Difference {deltaC}
  SupplyAirTemperature,                   !- Zone Heating Design Supply Air Temperature Input Method
  40,                                     !- Zone Heating Design Supply Air Temperature {C}
  11.11,                                  !- Zone Heating Design Supply Air Temperature Difference {deltaC}
  0.0085,                                 !- Zone Cooling Design Supply Air Humidity Ratio {kg-H2O/kg-air}
  0.008,                                  !- Zone Heating Design Supply Air Humidity Ratio {kg-H2O/kg-air}
  ,                                       !- Zone Heating Sizing Factor
  ,                                       !- Zone Cooling Sizing Factor
  DesignDay,                              !- Cooling Design Air Flow Method
  ,                                       !- Cooling Design Air Flow Rate {m3/s}
  ,                                       !- Cooling Minimum Air Flow per Zone Floor Area {m3/s-m2}
  ,                                       !- Cooling Minimum Air Flow {m3/s}
  ,                                       !- Cooling Minimum Air Flow Fraction
  DesignDay,                              !- Heating Design Air Flow Method
  ,                                       !- Heating Design Air Flow Rate {m3/s}
  ,                                       !- Heating Maximum Air Flow per Zone Floor Area {m3/s-m2}
  ,                                       !- Heating Maximum Air Flow {m3/s}
  ,                                       !- Heating Maximum Air Flow Fraction
  ,                                       !- Design Zone Air Distribution Effectiveness in Cooling Mode
  ,                                       !- Design Zone Air Distribution Effectiveness in Heating Mode
  No,                                     !- Account for Dedicated Outdoor Air System
  NeutralSupplyAir,                       !- Dedicated Outdoor Air System Control Strategy
  autosize,                               !- Dedicated Outdoor Air Low Setpoint Temperature for Design {C}
  autosize;                               !- Dedicated Outdoor Air High Setpoint Temperature for Design {C}

OS:ZoneHVAC:EquipmentList,
  {7270602b-b331-4c1e-8374-b2e8b0243827}, !- Handle
  Zone HVAC Equipment List 1,             !- Name
  {cfe04450-89d4-4ad1-a411-b80dd5996847}, !- Thermal Zone
  ,                                       !- Load Distribution Scheme
  {325a7421-eb78-4042-bf61-9b72a2abb3aa}, !- Zone Equipment 1
  2,                                      !- Zone Equipment Cooling Sequence 1
  2,                                      !- Zone Equipment Heating or No-Load Sequence 1
  {4c71bc59-249b-4481-871e-3b33d1a3a642}, !- Zone Equipment 2
  1,                                      !- Zone Equipment Cooling Sequence 2
  1;                                      !- Zone Equipment Heating or No-Load Sequence 2

OS:ThermalZone,
  {330ab84f-f6fb-43d3-ab1e-d17c92a5327d}, !- Handle
  garage zone,                            !- Name
  ,                                       !- Multiplier
  ,                                       !- Ceiling Height {m}
  ,                                       !- Volume {m3}
  ,                                       !- Floor Area {m2}
  ,                                       !- Zone Inside Convection Algorithm
  ,                                       !- Zone Outside Convection Algorithm
  ,                                       !- Zone Conditioning Equipment List Name
  {e6ff79ff-6c20-4460-ad96-2172707f232f}, !- Zone Air Inlet Port List
  {401a3d1c-7319-4376-ab11-32dfabd4c72c}, !- Zone Air Exhaust Port List
  {9223f49a-3b7a-47fe-bac8-6819c8459716}, !- Zone Air Node Name
  {9ca66ef2-6e65-4602-a0b8-02de6a185376}, !- Zone Return Air Port List
  ,                                       !- Primary Daylighting Control Name
  ,                                       !- Fraction of Zone Controlled by Primary Daylighting Control
  ,                                       !- Secondary Daylighting Control Name
  ,                                       !- Fraction of Zone Controlled by Secondary Daylighting Control
  ,                                       !- Illuminance Map Name
  ,                                       !- Group Rendering Name
  ,                                       !- Thermostat Name
  No;                                     !- Use Ideal Air Loads

OS:Node,
  {c0e9c1f2-e991-4b8b-af04-aac05b75a680}, !- Handle
  Node 2,                                 !- Name
  {9223f49a-3b7a-47fe-bac8-6819c8459716}, !- Inlet Port
  ;                                       !- Outlet Port

OS:Connection,
  {9223f49a-3b7a-47fe-bac8-6819c8459716}, !- Handle
  {5e41f561-8f44-48ea-9c7b-89ee9edde933}, !- Name
  {330ab84f-f6fb-43d3-ab1e-d17c92a5327d}, !- Source Object
  11,                                     !- Outlet Port
  {c0e9c1f2-e991-4b8b-af04-aac05b75a680}, !- Target Object
  2;                                      !- Inlet Port

OS:PortList,
  {e6ff79ff-6c20-4460-ad96-2172707f232f}, !- Handle
  {79ace33e-d69d-4085-a65d-06d81493c91c}, !- Name
  {330ab84f-f6fb-43d3-ab1e-d17c92a5327d}; !- HVAC Component

OS:PortList,
  {401a3d1c-7319-4376-ab11-32dfabd4c72c}, !- Handle
  {03d0d869-96b5-4fa9-ae46-cdd4c4a48bee}, !- Name
  {330ab84f-f6fb-43d3-ab1e-d17c92a5327d}; !- HVAC Component

OS:PortList,
  {9ca66ef2-6e65-4602-a0b8-02de6a185376}, !- Handle
  {449b0dab-3ffd-452e-b054-f2d427129bdd}, !- Name
  {330ab84f-f6fb-43d3-ab1e-d17c92a5327d}; !- HVAC Component

OS:Sizing:Zone,
  {090fe61f-9689-4705-b4b1-250eeb908987}, !- Handle
  {330ab84f-f6fb-43d3-ab1e-d17c92a5327d}, !- Zone or ZoneList Name
  SupplyAirTemperature,                   !- Zone Cooling Design Supply Air Temperature Input Method
  14,                                     !- Zone Cooling Design Supply Air Temperature {C}
  11.11,                                  !- Zone Cooling Design Supply Air Temperature Difference {deltaC}
  SupplyAirTemperature,                   !- Zone Heating Design Supply Air Temperature Input Method
  40,                                     !- Zone Heating Design Supply Air Temperature {C}
  11.11,                                  !- Zone Heating Design Supply Air Temperature Difference {deltaC}
  0.0085,                                 !- Zone Cooling Design Supply Air Humidity Ratio {kg-H2O/kg-air}
  0.008,                                  !- Zone Heating Design Supply Air Humidity Ratio {kg-H2O/kg-air}
  ,                                       !- Zone Heating Sizing Factor
  ,                                       !- Zone Cooling Sizing Factor
  DesignDay,                              !- Cooling Design Air Flow Method
  ,                                       !- Cooling Design Air Flow Rate {m3/s}
  ,                                       !- Cooling Minimum Air Flow per Zone Floor Area {m3/s-m2}
  ,                                       !- Cooling Minimum Air Flow {m3/s}
  ,                                       !- Cooling Minimum Air Flow Fraction
  DesignDay,                              !- Heating Design Air Flow Method
  ,                                       !- Heating Design Air Flow Rate {m3/s}
  ,                                       !- Heating Maximum Air Flow per Zone Floor Area {m3/s-m2}
  ,                                       !- Heating Maximum Air Flow {m3/s}
  ,                                       !- Heating Maximum Air Flow Fraction
  ,                                       !- Design Zone Air Distribution Effectiveness in Cooling Mode
  ,                                       !- Design Zone Air Distribution Effectiveness in Heating Mode
  No,                                     !- Account for Dedicated Outdoor Air System
  NeutralSupplyAir,                       !- Dedicated Outdoor Air System Control Strategy
  autosize,                               !- Dedicated Outdoor Air Low Setpoint Temperature for Design {C}
  autosize;                               !- Dedicated Outdoor Air High Setpoint Temperature for Design {C}

OS:ZoneHVAC:EquipmentList,
  {9994942d-6548-4dd6-9ff1-1e72ab4603c8}, !- Handle
  Zone HVAC Equipment List 2,             !- Name
  {330ab84f-f6fb-43d3-ab1e-d17c92a5327d}; !- Thermal Zone

OS:Space,
  {e99cabb3-5445-4c75-9b9c-38e26c39fe0b}, !- Handle
  garage space,                           !- Name
  {71f3089f-fe2d-4cf5-af40-969f653ce71e}, !- Space Type Name
  ,                                       !- Default Construction Set Name
  ,                                       !- Default Schedule Set Name
  -0,                                     !- Direction of Relative North {deg}
  0,                                      !- X Origin {m}
  0,                                      !- Y Origin {m}
  0,                                      !- Z Origin {m}
  ,                                       !- Building Story Name
  {330ab84f-f6fb-43d3-ab1e-d17c92a5327d}; !- Thermal Zone Name

OS:Surface,
  {12ebd4e2-06ac-46b1-a351-4fc1143b430d}, !- Handle
  Surface 1,                              !- Name
  Floor,                                  !- Surface Type
  {791f5326-ef38-4d8a-8595-bb1dde1ff5c3}, !- Construction Name
  {e99cabb3-5445-4c75-9b9c-38e26c39fe0b}, !- Space Name
  Foundation,                             !- Outside Boundary Condition
  {1cdce580-738c-4020-8c19-2b9773a56202}, !- Outside Boundary Condition Object
  NoSun,                                  !- Sun Exposure
  NoWind,                                 !- Wind Exposure
  ,                                       !- View Factor to Ground
  ,                                       !- Number of Vertices
  12.4316830995045, -3.6576, 0,           !- X,Y,Z Vertex 1 {m}
  12.4316830995045, 3.6576, 0,            !- X,Y,Z Vertex 2 {m}
  16.0892830995045, 3.6576, 0,            !- X,Y,Z Vertex 3 {m}
  16.0892830995045, -3.6576, 0;           !- X,Y,Z Vertex 4 {m}

OS:Surface,
  {e31d11b2-7f61-40c7-9479-fd0d1761384f}, !- Handle
  Surface 2,                              !- Name
  Wall,                                   !- Surface Type
  {b80f6ecf-8c0d-4c9c-bf07-f6f1612385b7}, !- Construction Name
  {e99cabb3-5445-4c75-9b9c-38e26c39fe0b}, !- Space Name
  Surface,                                !- Outside Boundary Condition
  {a340d134-8ae9-468b-b8c5-01eb5e6911c2}, !- Outside Boundary Condition Object
  NoSun,                                  !- Sun Exposure
  NoWind,                                 !- Wind Exposure
  ,                                       !- View Factor to Ground
  ,                                       !- Number of Vertices
  12.4316830995045, 3.6576, 2.4384,       !- X,Y,Z Vertex 1 {m}
  12.4316830995045, 3.6576, 0,            !- X,Y,Z Vertex 2 {m}
  12.4316830995045, 0, 0,                 !- X,Y,Z Vertex 3 {m}
  12.4316830995045, 0, 2.4384;            !- X,Y,Z Vertex 4 {m}

OS:Surface,
  {95daed4b-351d-4824-9b16-25303227268a}, !- Handle
  Surface 3,                              !- Name
  Wall,                                   !- Surface Type
  {b80f6ecf-8c0d-4c9c-bf07-f6f1612385b7}, !- Construction Name
  {e99cabb3-5445-4c75-9b9c-38e26c39fe0b}, !- Space Name
  Surface,                                !- Outside Boundary Condition
  {b2203502-f1c8-4fbc-bfbe-f01b11d06c18}, !- Outside Boundary Condition Object
  NoSun,                                  !- Sun Exposure
  NoWind,                                 !- Wind Exposure
  ,                                       !- View Factor to Ground
  ,                                       !- Number of Vertices
  16.0892830995045, 3.6576, 2.4384,       !- X,Y,Z Vertex 1 {m}
  16.0892830995045, 3.6576, 0,            !- X,Y,Z Vertex 2 {m}
  12.4316830995045, 3.6576, 0,            !- X,Y,Z Vertex 3 {m}
  12.4316830995045, 3.6576, 2.4384;       !- X,Y,Z Vertex 4 {m}

OS:Surface,
  {9b2af111-e4c3-4260-a507-030243ad0f0d}, !- Handle
  Surface 4,                              !- Name
  Wall,                                   !- Surface Type
  {a4cfc509-11bf-4365-9b48-4997871ae953}, !- Construction Name
  {e99cabb3-5445-4c75-9b9c-38e26c39fe0b}, !- Space Name
  Outdoors,                               !- Outside Boundary Condition
  ,                                       !- Outside Boundary Condition Object
  SunExposed,                             !- Sun Exposure
  WindExposed,                            !- Wind Exposure
  ,                                       !- View Factor to Ground
  ,                                       !- Number of Vertices
  16.0892830995045, -3.6576, 2.4384,      !- X,Y,Z Vertex 1 {m}
  16.0892830995045, -3.6576, 0,           !- X,Y,Z Vertex 2 {m}
  16.0892830995045, 3.6576, 0,            !- X,Y,Z Vertex 3 {m}
  16.0892830995045, 3.6576, 2.4384;       !- X,Y,Z Vertex 4 {m}

OS:Surface,
  {e7cb3145-7b64-468b-8639-9b106883f23f}, !- Handle
  Surface 5,                              !- Name
  Wall,                                   !- Surface Type
  {a4cfc509-11bf-4365-9b48-4997871ae953}, !- Construction Name
  {e99cabb3-5445-4c75-9b9c-38e26c39fe0b}, !- Space Name
  Outdoors,                               !- Outside Boundary Condition