!- NOTE: Auto-generated from /test/osw_files/SFD_2story_PB_UA_ElecFurnace_ElecTankWH.osw

OS:Version,
  {3f916824-dafd-439e-851e-a9705c718835}, !- Handle
  2.7.0;                                  !- Version Identifier

OS:SimulationControl,
  {618d6fb8-9ae5-43dc-8030-6d75f0de0345}, !- Handle
  ,                                       !- Do Zone Sizing Calculation
  ,                                       !- Do System Sizing Calculation
  ,                                       !- Do Plant Sizing Calculation
  No;                                     !- Run Simulation for Sizing Periods

OS:Timestep,
  {7e3778cc-6940-4645-ba51-327a41606697}, !- Handle
  6;                                      !- Number of Timesteps per Hour

OS:ShadowCalculation,
  {5a70434a-d0aa-4bea-a182-fb77ea773006}, !- Handle
  20,                                     !- Calculation Frequency
  200;                                    !- Maximum Figures in Shadow Overlap Calculations

OS:SurfaceConvectionAlgorithm:Outside,
  {d635ce04-3efc-402e-86a8-40a662da1af0}, !- Handle
  DOE-2;                                  !- Algorithm

OS:SurfaceConvectionAlgorithm:Inside,
  {13bc4f79-e376-41cd-a2d8-51a853b44d20}, !- Handle
  TARP;                                   !- Algorithm

OS:ZoneCapacitanceMultiplier:ResearchSpecial,
  {36a6dad0-fd6f-4111-87f2-baac6dd12be6}, !- Handle
  ,                                       !- Temperature Capacity Multiplier
  15,                                     !- Humidity Capacity Multiplier
  ;                                       !- Carbon Dioxide Capacity Multiplier

OS:RunPeriod,
  {6d0d162e-5d06-4ead-b2c4-0b24dc4f9746}, !- Handle
  Run Period 1,                           !- Name
  1,                                      !- Begin Month
  1,                                      !- Begin Day of Month
  12,                                     !- End Month
  31,                                     !- End Day of Month
  ,                                       !- Use Weather File Holidays and Special Days
  ,                                       !- Use Weather File Daylight Saving Period
  ,                                       !- Apply Weekend Holiday Rule
  ,                                       !- Use Weather File Rain Indicators
  ,                                       !- Use Weather File Snow Indicators
  ;                                       !- Number of Times Runperiod to be Repeated

OS:WeatherFile,
  {494f3a2f-6981-42c8-b6dd-8ab02610f84d}, !- Handle
  Denver Intl Ap,                         !- City
  CO,                                     !- State Province Region
  USA,                                    !- Country
  TMY3,                                   !- Data Source
  725650,                                 !- WMO Number
  39.83,                                  !- Latitude {deg}
  -104.65,                                !- Longitude {deg}
  -7,                                     !- Time Zone {hr}
  1650,                                   !- Elevation {m}
  file:../tests/USA_CO_Denver_Intl_AP_725650_TMY3.epw, !- Url
  E23378AA;                               !- Checksum

OS:AdditionalProperties,
  {d66d72d9-847e-4b90-a88e-37c8609fbba3}, !- Handle
  {494f3a2f-6981-42c8-b6dd-8ab02610f84d}, !- Object Name
  EPWHeaderCity,                          !- Feature Name 1
  String,                                 !- Feature Data Type 1
  Denver Intl Ap,                         !- Feature Value 1
  EPWHeaderState,                         !- Feature Name 2
  String,                                 !- Feature Data Type 2
  CO,                                     !- Feature Value 2
  EPWHeaderCountry,                       !- Feature Name 3
  String,                                 !- Feature Data Type 3
  USA,                                    !- Feature Value 3
  EPWHeaderDataSource,                    !- Feature Name 4
  String,                                 !- Feature Data Type 4
  TMY3,                                   !- Feature Value 4
  EPWHeaderStation,                       !- Feature Name 5
  String,                                 !- Feature Data Type 5
  725650,                                 !- Feature Value 5
  EPWHeaderLatitude,                      !- Feature Name 6
  Double,                                 !- Feature Data Type 6
  39.829999999999998,                     !- Feature Value 6
  EPWHeaderLongitude,                     !- Feature Name 7
  Double,                                 !- Feature Data Type 7
  -104.65000000000001,                    !- Feature Value 7
  EPWHeaderTimezone,                      !- Feature Name 8
  Double,                                 !- Feature Data Type 8
  -7,                                     !- Feature Value 8
  EPWHeaderAltitude,                      !- Feature Name 9
  Double,                                 !- Feature Data Type 9
  5413.3858267716532,                     !- Feature Value 9
  EPWHeaderLocalPressure,                 !- Feature Name 10
  Double,                                 !- Feature Data Type 10
  0.81937567683596546,                    !- Feature Value 10
  EPWHeaderRecordsPerHour,                !- Feature Name 11
  Double,                                 !- Feature Data Type 11
  1,                                      !- Feature Value 11
  EPWDataAnnualAvgDrybulb,                !- Feature Name 12
  Double,                                 !- Feature Data Type 12
  51.575616438356228,                     !- Feature Value 12
  EPWDataAnnualMinDrybulb,                !- Feature Name 13
  Double,                                 !- Feature Data Type 13
  -2.9200000000000017,                    !- Feature Value 13
  EPWDataAnnualMaxDrybulb,                !- Feature Name 14
  Double,                                 !- Feature Data Type 14
  104,                                    !- Feature Value 14
  EPWDataCDD50F,                          !- Feature Name 15
  Double,                                 !- Feature Data Type 15
  3072.2925000000005,                     !- Feature Value 15
  EPWDataCDD65F,                          !- Feature Name 16
  Double,                                 !- Feature Data Type 16
  883.62000000000035,                     !- Feature Value 16
  EPWDataHDD50F,                          !- Feature Name 17
  Double,                                 !- Feature Data Type 17
  2497.1925000000001,                     !- Feature Value 17
  EPWDataHDD65F,                          !- Feature Name 18
  Double,                                 !- Feature Data Type 18
  5783.5200000000013,                     !- Feature Value 18
  EPWDataAnnualAvgWindspeed,              !- Feature Name 19
  Double,                                 !- Feature Data Type 19
  3.9165296803649667,                     !- Feature Value 19
  EPWDataMonthlyAvgDrybulbs,              !- Feature Name 20
  String,                                 !- Feature Data Type 20
  33.4191935483871&#4431.90142857142857&#4443.02620967741937&#4442.48624999999999&#4459.877741935483854&#4473.57574999999997&#4472.07975806451608&#4472.70008064516134&#4466.49200000000006&#4450.079112903225806&#4437.218250000000005&#4434.582177419354835, !- Feature Value 20
  EPWDataGroundMonthlyTemps,              !- Feature Name 21
  String,                                 !- Feature Data Type 21
  44.08306285945173&#4440.89570904991865&#4440.64045432632048&#4442.153016571250646&#4448.225111118704206&#4454.268919273837525&#4459.508577937551024&#4462.82777283423508&#4463.10975667174995&#4460.41014950381947&#4455.304105212311526&#4449.445696474514364, !- Feature Value 21
  EPWDataWSF,                             !- Feature Name 22
  Double,                                 !- Feature Data Type 22
  0.58999999999999997,                    !- Feature Value 22
  EPWDataMonthlyAvgDailyHighDrybulbs,     !- Feature Name 23
  String,                                 !- Feature Data Type 23
  47.41032258064516&#4446.58642857142857&#4455.15032258064517&#4453.708&#4472.80193548387098&#4488.67600000000002&#4486.1858064516129&#4485.87225806451613&#4482.082&#4463.18064516129033&#4448.73400000000001&#4448.87935483870968, !- Feature Value 23
  EPWDataMonthlyAvgDailyLowDrybulbs,      !- Feature Name 24
  String,                                 !- Feature Data Type 24
  19.347741935483874&#4419.856428571428573&#4430.316129032258065&#4431.112&#4447.41612903225806&#4457.901999999999994&#4459.063870967741934&#4460.956774193548384&#4452.352000000000004&#4438.41612903225806&#4427.002000000000002&#4423.02903225806451, !- Feature Value 24
  EPWDesignHeatingDrybulb,                !- Feature Name 25
  Double,                                 !- Feature Data Type 25
  6.8000000000000007,                     !- Feature Value 25
  EPWDesignHeatingWindspeed,              !- Feature Name 26
  Double,                                 !- Feature Data Type 26
  12,                                     !- Feature Value 26
  EPWDesignCoolingDrybulb,                !- Feature Name 27
  Double,                                 !- Feature Data Type 27
  91.760000000000005,                     !- Feature Value 27
  EPWDesignCoolingWetbulb,                !- Feature Name 28
  Double,                                 !- Feature Data Type 28
  60.079999999999998,                     !- Feature Value 28
  EPWDesignCoolingHumidityRatio,          !- Feature Name 29
  Double,                                 !- Feature Data Type 29
  0.006050392196571398,                   !- Feature Value 29
  EPWDesignCoolingWindspeed,              !- Feature Name 30
  Double,                                 !- Feature Data Type 30
  4.2000000000000002,                     !- Feature Value 30
  EPWDesignDailyTemperatureRange,         !- Feature Name 31
  Double,                                 !- Feature Data Type 31
  27.359999999999999,                     !- Feature Value 31
  EPWDesignDehumidDrybulb,                !- Feature Name 32
  Double,                                 !- Feature Data Type 32
  67.280000000000001,                     !- Feature Value 32
  EPWDesignDehumidHumidityRatio,          !- Feature Name 33
  Double,                                 !- Feature Data Type 33
  0.012295426899271008,                   !- Feature Value 33
  EPWDesignCoolingDirectNormal,           !- Feature Name 34
  Double,                                 !- Feature Data Type 34
  985,                                    !- Feature Value 34
  EPWDesignCoolingDiffuseHorizontal,      !- Feature Name 35
  Double,                                 !- Feature Data Type 35
  84;                                     !- Feature Value 35

OS:YearDescription,
  {37e8919e-99aa-459e-8c8c-832ab85f4d7a}, !- Handle
  ,                                       !- Calendar Year
  Monday;                                 !- Day of Week for Start Day

OS:Site,
  {b0f17937-d670-4357-8f47-2b4931039a4f}, !- Handle
  Denver Intl Ap_CO_USA,                  !- Name
  39.83,                                  !- Latitude {deg}
  -104.65,                                !- Longitude {deg}
  -7,                                     !- Time Zone {hr}
  1650,                                   !- Elevation {m}
  Suburbs;                                !- Terrain

OS:ClimateZones,
  {adb4e9be-e995-482d-8ce7-d4a182e2131f}, !- Handle
  ,                                       !- Active Institution
  ,                                       !- Active Year
  ,                                       !- Climate Zone Institution Name 1
  ,                                       !- Climate Zone Document Name 1
  ,                                       !- Climate Zone Document Year 1
  ,                                       !- Climate Zone Value 1
  Building America,                       !- Climate Zone Institution Name 2
  ,                                       !- Climate Zone Document Name 2
  0,                                      !- Climate Zone Document Year 2
  Cold;                                   !- Climate Zone Value 2

OS:Site:WaterMainsTemperature,
  {7d8096d1-b305-4970-87d4-dac05eab702f}, !- Handle
  Correlation,                            !- Calculation Method
  ,                                       !- Temperature Schedule Name
  10.8753424657535,                       !- Annual Average Outdoor Air Temperature {C}
  23.1524007936508;                       !- Maximum Difference In Monthly Average Outdoor Air Temperatures {deltaC}

OS:RunPeriodControl:DaylightSavingTime,
  {663c1b1c-1ce1-449e-a457-c37085054713}, !- Handle
  4/7,                                    !- Start Date
  10/26;                                  !- End Date

OS:Site:GroundTemperature:Deep,
  {f2a23b48-bc92-402c-802b-d704ce961990}, !- Handle
  10.8753424657535,                       !- January Deep Ground Temperature {C}
  10.8753424657535,                       !- February Deep Ground Temperature {C}
  10.8753424657535,                       !- March Deep Ground Temperature {C}
  10.8753424657535,                       !- April Deep Ground Temperature {C}
  10.8753424657535,                       !- May Deep Ground Temperature {C}
  10.8753424657535,                       !- June Deep Ground Temperature {C}
  10.8753424657535,                       !- July Deep Ground Temperature {C}
  10.8753424657535,                       !- August Deep Ground Temperature {C}
  10.8753424657535,                       !- September Deep Ground Temperature {C}
  10.8753424657535,                       !- October Deep Ground Temperature {C}
  10.8753424657535,                       !- November Deep Ground Temperature {C}
  10.8753424657535;                       !- December Deep Ground Temperature {C}

OS:ThermalZone,
  {569ea550-c822-4391-9a93-29e0dffbd4c9}, !- Handle
  living zone,                            !- Name
  ,                                       !- Multiplier
  ,                                       !- Ceiling Height {m}
  ,                                       !- Volume {m3}
  ,                                       !- Floor Area {m2}
  ,                                       !- Zone Inside Convection Algorithm
  ,                                       !- Zone Outside Convection Algorithm
  ,                                       !- Zone Conditioning Equipment List Name
  {e2f059aa-8cbb-40aa-b005-db245ffc4860}, !- Zone Air Inlet Port List
  {baf1f023-c598-4b85-8d40-4ba8c8314948}, !- Zone Air Exhaust Port List
  {c946a245-679f-4196-aead-c93443a330f2}, !- Zone Air Node Name
  {d2263d22-24e6-4380-a9d9-af8b698b6f36}, !- Zone Return Air Port List
  ,                                       !- Primary Daylighting Control Name
  ,                                       !- Fraction of Zone Controlled by Primary Daylighting Control
  ,                                       !- Secondary Daylighting Control Name
  ,                                       !- Fraction of Zone Controlled by Secondary Daylighting Control
  ,                                       !- Illuminance Map Name
  ,                                       !- Group Rendering Name
  {4d0e3e88-706c-473b-92b3-503d09066948}, !- Thermostat Name
  No;                                     !- Use Ideal Air Loads

OS:Node,
  {227812cb-2033-4b4d-bd35-00a76355288c}, !- Handle
  Node 1,                                 !- Name
  {c946a245-679f-4196-aead-c93443a330f2}, !- Inlet Port
  ;                                       !- Outlet Port

OS:Connection,
  {c946a245-679f-4196-aead-c93443a330f2}, !- Handle
  {2a0c32c3-8de4-443f-8e21-055488bf34f1}, !- Name
  {569ea550-c822-4391-9a93-29e0dffbd4c9}, !- Source Object
  11,                                     !- Outlet Port
  {227812cb-2033-4b4d-bd35-00a76355288c}, !- Target Object
  2;                                      !- Inlet Port

OS:PortList,
  {e2f059aa-8cbb-40aa-b005-db245ffc4860}, !- Handle
  {504e6909-d48e-45c7-8f7a-34b903652e92}, !- Name
  {569ea550-c822-4391-9a93-29e0dffbd4c9}, !- HVAC Component
  {77cd0f9a-67d0-4f34-830f-eb37b4b1d60e}; !- Port 1

OS:PortList,
  {baf1f023-c598-4b85-8d40-4ba8c8314948}, !- Handle
  {4c975a75-7396-4653-af08-e46555fbb6e3}, !- Name
  {569ea550-c822-4391-9a93-29e0dffbd4c9}; !- HVAC Component

OS:PortList,
  {d2263d22-24e6-4380-a9d9-af8b698b6f36}, !- Handle
  {f9d71aa3-940e-4581-abe2-4a127de83f9b}, !- Name
  {569ea550-c822-4391-9a93-29e0dffbd4c9}, !- HVAC Component
  {1a3eb4d4-da92-4356-8688-94a217bde8e5}; !- Port 1

OS:Sizing:Zone,
  {c8649d23-3893-49d1-a340-a0076686a249}, !- Handle
  {569ea550-c822-4391-9a93-29e0dffbd4c9}, !- Zone or ZoneList Name
  SupplyAirTemperature,                   !- Zone Cooling Design Supply Air Temperature Input Method
  14,                                     !- Zone Cooling Design Supply Air Temperature {C}
  11.11,                                  !- Zone Cooling Design Supply Air Temperature Difference {deltaC}
  SupplyAirTemperature,                   !- Zone Heating Design Supply Air Temperature Input Method
  40,                                     !- Zone Heating Design Supply Air Temperature {C}
  11.11,                                  !- Zone Heating Design Supply Air Temperature Difference {deltaC}
  0.0085,                                 !- Zone Cooling Design Supply Air Humidity Ratio {kg-H2O/kg-air}
  0.008,                                  !- Zone Heating Design Supply Air Humidity Ratio {kg-H2O/kg-air}
  ,                                       !- Zone Heating Sizing Factor
  ,                                       !- Zone Cooling Sizing Factor
  DesignDay,                              !- Cooling Design Air Flow Method
  ,                                       !- Cooling Design Air Flow Rate {m3/s}
  ,                                       !- Cooling Minimum Air Flow per Zone Floor Area {m3/s-m2}
  ,                                       !- Cooling Minimum Air Flow {m3/s}
  ,                                       !- Cooling Minimum Air Flow Fraction
  DesignDay,                              !- Heating Design Air Flow Method
  ,                                       !- Heating Design Air Flow Rate {m3/s}
  ,                                       !- Heating Maximum Air Flow per Zone Floor Area {m3/s-m2}
  ,                                       !- Heating Maximum Air Flow {m3/s}
  ,                                       !- Heating Maximum Air Flow Fraction
  ,                                       !- Design Zone Air Distribution Effectiveness in Cooling Mode
  ,                                       !- Design Zone Air Distribution Effectiveness in Heating Mode
  No,                                     !- Account for Dedicated Outdoor Air System
  NeutralSupplyAir,                       !- Dedicated Outdoor Air System Control Strategy
  autosize,                               !- Dedicated Outdoor Air Low Setpoint Temperature for Design {C}
  autosize;                               !- Dedicated Outdoor Air High Setpoint Temperature for Design {C}

OS:ZoneHVAC:EquipmentList,
  {401eb447-6246-4ef7-b98d-c8e642f1a01c}, !- Handle
  Zone HVAC Equipment List 1,             !- Name
  {569ea550-c822-4391-9a93-29e0dffbd4c9}, !- Thermal Zone
  ,                                       !- Load Distribution Scheme
  {506670d4-9287-47b0-994e-dc7778463d87}, !- Zone Equipment 1
  1,                                      !- Zone Equipment Cooling Sequence 1
  1;                                      !- Zone Equipment Heating or No-Load Sequence 1

OS:Space,
  {b3ea398f-072a-4a7b-a4a5-e27acbc9e485}, !- Handle
  living space,                           !- Name
  {4c3e0349-9b64-4d4a-935e-a4a58eca9376}, !- Space Type Name
  ,                                       !- Default Construction Set Name
  ,                                       !- Default Schedule Set Name
  -0,                                     !- Direction of Relative North {deg}
  0,                                      !- X Origin {m}
  0,                                      !- Y Origin {m}
  1.2192,                                 !- Z Origin {m}
  ,                                       !- Building Story Name
  {569ea550-c822-4391-9a93-29e0dffbd4c9}, !- Thermal Zone Name
  ,                                       !- Part of Total Floor Area
  ,                                       !- Design Specification Outdoor Air Object Name
  {3a5650f4-6a1d-4fba-bd7d-9de9e12f09d3}; !- Building Unit Name

OS:Surface,
  {d1e80e5c-86c6-47b4-96be-808258ae60dc}, !- Handle
  Surface 1,                              !- Name
  Floor,                                  !- Surface Type
  {8eb0403b-9dbe-49a8-8c08-f4bfc406a8d0}, !- Construction Name
  {b3ea398f-072a-4a7b-a4a5-e27acbc9e485}, !- Space Name
  Surface,                                !- Outside Boundary Condition
  {55d3870b-3b56-41e9-a526-0f467240efca}, !- Outside Boundary Condition Object
  NoSun,                                  !- Sun Exposure
  NoWind,                                 !- Wind Exposure
  ,                                       !- View Factor to Ground
  ,                                       !- Number of Vertices
  0, 0, 0,                                !- X,Y,Z Vertex 1 {m}
  0, 7.18420489685532, 0,                 !- X,Y,Z Vertex 2 {m}
  12.9315688143396, 7.18420489685532, 0,  !- X,Y,Z Vertex 3 {m}
  12.9315688143396, 0, 0;                 !- X,Y,Z Vertex 4 {m}

OS:Surface,
  {b8b129c7-23a4-4884-93f7-4295178d575f}, !- Handle
  Surface 2,                              !- Name
  Wall,                                   !- Surface Type
  {613b2a53-71b4-4b0c-8211-04bcd40c186e}, !- Construction Name
  {b3ea398f-072a-4a7b-a4a5-e27acbc9e485}, !- Space Name
  Outdoors,                               !- Outside Boundary Condition
  ,                                       !- Outside Boundary Condition Object
  SunExposed,                             !- Sun Exposure
  WindExposed,                            !- Wind Exposure
  ,                                       !- View Factor to Ground
  ,                                       !- Number of Vertices
  0, 7.18420489685532, 2.4384,            !- X,Y,Z Vertex 1 {m}
  0, 7.18420489685532, 0,                 !- X,Y,Z Vertex 2 {m}
  0, 0, 0,                                !- X,Y,Z Vertex 3 {m}
  0, 0, 2.4384;                           !- X,Y,Z Vertex 4 {m}

OS:Surface,
  {f654c160-2e60-4043-9e17-59ee572b616b}, !- Handle
  Surface 3,                              !- Name
  Wall,                                   !- Surface Type
  {613b2a53-71b4-4b0c-8211-04bcd40c186e}, !- Construction Name
  {b3ea398f-072a-4a7b-a4a5-e27acbc9e485}, !- Space Name
  Outdoors,                               !- Outside Boundary Condition
  ,                                       !- Outside Boundary Condition Object
  SunExposed,                             !- Sun Exposure
  WindExposed,                            !- Wind Exposure
  ,                                       !- View Factor to Ground
  ,                                       !- Number of Vertices
  12.9315688143396, 7.18420489685532, 2.4384, !- X,Y,Z Vertex 1 {m}
  12.9315688143396, 7.18420489685532, 0,  !- X,Y,Z Vertex 2 {m}
  0, 7.18420489685532, 0,                 !- X,Y,Z Vertex 3 {m}
  0, 7.18420489685532, 2.4384;            !- X,Y,Z Vertex 4 {m}

OS:Surface,
  {f846de48-0815-434a-b488-526600f93536}, !- Handle
  Surface 4,                              !- Name
  Wall,                                   !- Surface Type
  {613b2a53-71b4-4b0c-8211-04bcd40c186e}, !- Construction Name
  {b3ea398f-072a-4a7b-a4a5-e27acbc9e485}, !- Space Name
  Outdoors,                               !- Outside Boundary Condition
  ,                                       !- Outside Boundary Condition Object
  SunExposed,                             !- Sun Exposure
  WindExposed,                            !- Wind Exposure
  ,                                       !- View Factor to Ground
  ,                                       !- Number of Vertices
  12.9315688143396, 0, 2.4384,            !- X,Y,Z Vertex 1 {m}
  12.9315688143396, 0, 0,                 !- X,Y,Z Vertex 2 {m}
  12.9315688143396, 7.18420489685532, 0,  !- X,Y,Z Vertex 3 {m}
  12.9315688143396, 7.18420489685532, 2.4384; !- X,Y,Z Vertex 4 {m}

OS:Surface,
  {a40fbc53-195b-49e4-b53b-757e6feacff0}, !- Handle
  Surface 5,                              !- Name
  Wall,                                   !- Surface Type
  {613b2a53-71b4-4b0c-8211-04bcd40c186e}, !- Construction Name
  {b3ea398f-072a-4a7b-a4a5-e27acbc9e485}, !- Space Name
  Outdoors,                               !- Outside Boundary Condition
  ,                                       !- Outside Boundary Condition Object
  SunExposed,                             !- Sun Exposure
  WindExposed,                            !- Wind Exposure
  ,                                       !- View Factor to Ground
  ,                                       !- Number of Vertices
  12.9315688143396, 0, 0,                 !- X,Y,Z Vertex 1 {m}
  12.9315688143396, 0, 2.4384,            !- X,Y,Z Vertex 2 {m}
  1.91951428571429, 0, 2.4384,            !- X,Y,Z Vertex 3 {m}
  1.91951428571429, 0, 0;                 !- X,Y,Z Vertex 4 {m}

OS:Surface,
  {965c89f2-6791-4c91-a271-0fab07311734}, !- Handle
  Surface 6,                              !- Name
  RoofCeiling,                            !- Surface Type
  {a0bd41f3-c384-459f-91e9-22d1146c7a4f}, !- Construction Name
  {b3ea398f-072a-4a7b-a4a5-e27acbc9e485}, !- Space Name
  Surface,                                !- Outside Boundary Condition
  {0a52b9f6-6c51-4198-9692-c05dea2843b8}, !- Outside Boundary Condition Object
  NoSun,                                  !- Sun Exposure
  NoWind,                                 !- Wind Exposure
  ,                                       !- View Factor to Ground
  ,                                       !- Number of Vertices
  12.9315688143396, 0, 2.4384,            !- X,Y,Z Vertex 1 {m}
  12.9315688143396, 7.18420489685532, 2.4384, !- X,Y,Z Vertex 2 {m}
  0, 7.18420489685532, 2.4384,            !- X,Y,Z Vertex 3 {m}
  0, 0, 2.4384;                           !- X,Y,Z Vertex 4 {m}

OS:SpaceType,
  {4c3e0349-9b64-4d4a-935e-a4a58eca9376}, !- Handle
  Space Type 1,                           !- Name
  ,                                       !- Default Construction Set Name
  ,                                       !- Default Schedule Set Name
  ,                                       !- Group Rendering Name
  ,                                       !- Design Specification Outdoor Air Object Name
  ,                                       !- Standards Template
  ,                                       !- Standards Building Type
  living;                                 !- Standards Space Type

OS:Space,
  {2e8eaaea-73d5-4735-828d-e38cd89624b5}, !- Handle
  living space|story 2,                   !- Name
  {4c3e0349-9b64-4d4a-935e-a4a58eca9376}, !- Space Type Name
  ,                                       !- Default Construction Set Name
  ,                                       !- Default Schedule Set Name
  -0,                                     !- Direction of Relative North {deg}
  0,                                      !- X Origin {m}
  0,                                      !- Y Origin {m}
  3.6576,                                 !- Z Origin {m}
  ,                                       !- Building Story Name
  {569ea550-c822-4391-9a93-29e0dffbd4c9}, !- Thermal Zone Name
  ,                                       !- Part of Total Floor Area
  ,                                       !- Design Specification Outdoor Air Object Name
  {3a5650f4-6a1d-4fba-bd7d-9de9e12f09d3}; !- Building Unit Name

OS:Surface,
  {0a52b9f6-6c51-4198-9692-c05dea2843b8}, !- Handle
  Surface 7,                              !- Name
  Floor,                                  !- Surface Type
  {23c1441a-5047-4722-b8e5-36529ce4dd3e}, !- Construction Name
  {2e8eaaea-73d5-4735-828d-e38cd89624b5}, !- Space Name
  Surface,                                !- Outside Boundary Condition
  {965c89f2-6791-4c91-a271-0fab07311734}, !- Outside Boundary Condition Object
  NoSun,                                  !- Sun Exposure
  NoWind,                                 !- Wind Exposure
  ,                                       !- View Factor to Ground
  ,                                       !- Number of Vertices
  0, 0, -4.44089209850063e-016,           !- X,Y,Z Vertex 1 {m}
  0, 7.18420489685532, -4.44089209850063e-016, !- X,Y,Z Vertex 2 {m}
  12.9315688143396, 7.18420489685532, -4.44089209850063e-016, !- X,Y,Z Vertex 3 {m}
  12.9315688143396, 0, -4.44089209850063e-016; !- X,Y,Z Vertex 4 {m}

OS:Surface,
  {569b2e7f-42c1-4704-8108-ec056b2bdcf5}, !- Handle
  Surface 8,                              !- Name
  Wall,                                   !- Surface Type
  {613b2a53-71b4-4b0c-8211-04bcd40c186e}, !- Construction Name
  {2e8eaaea-73d5-4735-828d-e38cd89624b5}, !- Space Name
  Outdoors,                               !- Outside Boundary Condition
  ,                                       !- Outside Boundary Condition Object
  SunExposed,                             !- Sun Exposure
  WindExposed,                            !- Wind Exposure
  ,                                       !- View Factor to Ground
  ,                                       !- Number of Vertices
  0, 7.18420489685532, 2.4384,            !- X,Y,Z Vertex 1 {m}
  0, 7.18420489685532, -4.44089209850063e-016, !- X,Y,Z Vertex 2 {m}
  0, 0, -4.44089209850063e-016,           !- X,Y,Z Vertex 3 {m}
  0, 0, 2.4384;                           !- X,Y,Z Vertex 4 {m}

OS:Surface,
  {f074baa9-1f45-41a6-abd2-8435df9f4ada}, !- Handle
  Surface 9,                              !- Name
  Wall,                                   !- Surface Type
  {613b2a53-71b4-4b0c-8211-04bcd40c186e}, !- Construction Name
  {2e8eaaea-73d5-4735-828d-e38cd89624b5}, !- Space Name
  Outdoors,                               !- Outside Boundary Condition
  ,                                       !- Outside Boundary Condition Object