!- NOTE: Auto-generated from /test/osw_files/SFD_1story_FB_UA_GRG_RoomAC_ElecBoiler_FuelTanklessWH.osw

OS:Version,
  {ef03d723-ed53-4914-bcb0-a8d12ed84df4}, !- Handle
  2.7.0;                                  !- Version Identifier

OS:SimulationControl,
  {24adf90d-cc42-4ca2-ab28-e84c6b117427}, !- Handle
  ,                                       !- Do Zone Sizing Calculation
  ,                                       !- Do System Sizing Calculation
  ,                                       !- Do Plant Sizing Calculation
  No;                                     !- Run Simulation for Sizing Periods

OS:Timestep,
  {d54c4874-ecbe-4cf6-8cd0-0a48f0bb0481}, !- Handle
  6;                                      !- Number of Timesteps per Hour

OS:ShadowCalculation,
  {ce4bfdba-4768-449d-89ba-dafe8794bcac}, !- Handle
  20,                                     !- Calculation Frequency
  200;                                    !- Maximum Figures in Shadow Overlap Calculations

OS:SurfaceConvectionAlgorithm:Outside,
  {96fe7949-161c-4de3-9a3d-013372f11cad}, !- Handle
  DOE-2;                                  !- Algorithm

OS:SurfaceConvectionAlgorithm:Inside,
  {a02a1198-3fa7-4e36-a00e-96307857a38d}, !- Handle
  TARP;                                   !- Algorithm

OS:ZoneCapacitanceMultiplier:ResearchSpecial,
  {fdb3c0b7-209c-4230-b1f0-4e57f31ee0a4}, !- Handle
  ,                                       !- Temperature Capacity Multiplier
  15,                                     !- Humidity Capacity Multiplier
  ;                                       !- Carbon Dioxide Capacity Multiplier

OS:RunPeriod,
  {fadccd31-76ec-4389-95cf-f4eee7ea6b1a}, !- Handle
  Run Period 1,                           !- Name
  1,                                      !- Begin Month
  1,                                      !- Begin Day of Month
  12,                                     !- End Month
  31,                                     !- End Day of Month
  ,                                       !- Use Weather File Holidays and Special Days
  ,                                       !- Use Weather File Daylight Saving Period
  ,                                       !- Apply Weekend Holiday Rule
  ,                                       !- Use Weather File Rain Indicators
  ,                                       !- Use Weather File Snow Indicators
  ;                                       !- Number of Times Runperiod to be Repeated

OS:WeatherFile,
  {e3f81ad6-5881-4a53-9892-28350d8551d9}, !- Handle
  Denver Intl Ap,                         !- City
  CO,                                     !- State Province Region
  USA,                                    !- Country
  TMY3,                                   !- Data Source
  725650,                                 !- WMO Number
  39.83,                                  !- Latitude {deg}
  -104.65,                                !- Longitude {deg}
  -7,                                     !- Time Zone {hr}
  1650,                                   !- Elevation {m}
  file:../tests/USA_CO_Denver_Intl_AP_725650_TMY3.epw, !- Url
  E23378AA;                               !- Checksum

OS:AdditionalProperties,
  {cea02bfa-f8a8-4635-a282-de0f0968a023}, !- Handle
  {e3f81ad6-5881-4a53-9892-28350d8551d9}, !- Object Name
  EPWHeaderCity,                          !- Feature Name 1
  String,                                 !- Feature Data Type 1
  Denver Intl Ap,                         !- Feature Value 1
  EPWHeaderState,                         !- Feature Name 2
  String,                                 !- Feature Data Type 2
  CO,                                     !- Feature Value 2
  EPWHeaderCountry,                       !- Feature Name 3
  String,                                 !- Feature Data Type 3
  USA,                                    !- Feature Value 3
  EPWHeaderDataSource,                    !- Feature Name 4
  String,                                 !- Feature Data Type 4
  TMY3,                                   !- Feature Value 4
  EPWHeaderStation,                       !- Feature Name 5
  String,                                 !- Feature Data Type 5
  725650,                                 !- Feature Value 5
  EPWHeaderLatitude,                      !- Feature Name 6
  Double,                                 !- Feature Data Type 6
  39.829999999999998,                     !- Feature Value 6
  EPWHeaderLongitude,                     !- Feature Name 7
  Double,                                 !- Feature Data Type 7
  -104.65000000000001,                    !- Feature Value 7
  EPWHeaderTimezone,                      !- Feature Name 8
  Double,                                 !- Feature Data Type 8
  -7,                                     !- Feature Value 8
  EPWHeaderAltitude,                      !- Feature Name 9
  Double,                                 !- Feature Data Type 9
  5413.3858267716532,                     !- Feature Value 9
  EPWHeaderLocalPressure,                 !- Feature Name 10
  Double,                                 !- Feature Data Type 10
  0.81937567683596546,                    !- Feature Value 10
  EPWHeaderRecordsPerHour,                !- Feature Name 11
  Double,                                 !- Feature Data Type 11
  1,                                      !- Feature Value 11
  EPWDataAnnualAvgDrybulb,                !- Feature Name 12
  Double,                                 !- Feature Data Type 12
  51.575616438356228,                     !- Feature Value 12
  EPWDataAnnualMinDrybulb,                !- Feature Name 13
  Double,                                 !- Feature Data Type 13
  -2.9200000000000017,                    !- Feature Value 13
  EPWDataAnnualMaxDrybulb,                !- Feature Name 14
  Double,                                 !- Feature Data Type 14
  104,                                    !- Feature Value 14
  EPWDataCDD50F,                          !- Feature Name 15
  Double,                                 !- Feature Data Type 15
  3072.2925000000005,                     !- Feature Value 15
  EPWDataCDD65F,                          !- Feature Name 16
  Double,                                 !- Feature Data Type 16
  883.62000000000035,                     !- Feature Value 16
  EPWDataHDD50F,                          !- Feature Name 17
  Double,                                 !- Feature Data Type 17
  2497.1925000000001,                     !- Feature Value 17
  EPWDataHDD65F,                          !- Feature Name 18
  Double,                                 !- Feature Data Type 18
  5783.5200000000013,                     !- Feature Value 18
  EPWDataAnnualAvgWindspeed,              !- Feature Name 19
  Double,                                 !- Feature Data Type 19
  3.9165296803649667,                     !- Feature Value 19
  EPWDataMonthlyAvgDrybulbs,              !- Feature Name 20
  String,                                 !- Feature Data Type 20
  33.4191935483871&#4431.90142857142857&#4443.02620967741937&#4442.48624999999999&#4459.877741935483854&#4473.57574999999997&#4472.07975806451608&#4472.70008064516134&#4466.49200000000006&#4450.079112903225806&#4437.218250000000005&#4434.582177419354835, !- Feature Value 20
  EPWDataGroundMonthlyTemps,              !- Feature Name 21
  String,                                 !- Feature Data Type 21
  44.08306285945173&#4440.89570904991865&#4440.64045432632048&#4442.153016571250646&#4448.225111118704206&#4454.268919273837525&#4459.508577937551024&#4462.82777283423508&#4463.10975667174995&#4460.41014950381947&#4455.304105212311526&#4449.445696474514364, !- Feature Value 21
  EPWDataWSF,                             !- Feature Name 22
  Double,                                 !- Feature Data Type 22
  0.58999999999999997,                    !- Feature Value 22
  EPWDataMonthlyAvgDailyHighDrybulbs,     !- Feature Name 23
  String,                                 !- Feature Data Type 23
  47.41032258064516&#4446.58642857142857&#4455.15032258064517&#4453.708&#4472.80193548387098&#4488.67600000000002&#4486.1858064516129&#4485.87225806451613&#4482.082&#4463.18064516129033&#4448.73400000000001&#4448.87935483870968, !- Feature Value 23
  EPWDataMonthlyAvgDailyLowDrybulbs,      !- Feature Name 24
  String,                                 !- Feature Data Type 24
  19.347741935483874&#4419.856428571428573&#4430.316129032258065&#4431.112&#4447.41612903225806&#4457.901999999999994&#4459.063870967741934&#4460.956774193548384&#4452.352000000000004&#4438.41612903225806&#4427.002000000000002&#4423.02903225806451, !- Feature Value 24
  EPWDesignHeatingDrybulb,                !- Feature Name 25
  Double,                                 !- Feature Data Type 25
  6.8000000000000007,                     !- Feature Value 25
  EPWDesignHeatingWindspeed,              !- Feature Name 26
  Double,                                 !- Feature Data Type 26
  12,                                     !- Feature Value 26
  EPWDesignCoolingDrybulb,                !- Feature Name 27
  Double,                                 !- Feature Data Type 27
  91.760000000000005,                     !- Feature Value 27
  EPWDesignCoolingWetbulb,                !- Feature Name 28
  Double,                                 !- Feature Data Type 28
  60.079999999999998,                     !- Feature Value 28
  EPWDesignCoolingHumidityRatio,          !- Feature Name 29
  Double,                                 !- Feature Data Type 29
  0.006050392196571398,                   !- Feature Value 29
  EPWDesignCoolingWindspeed,              !- Feature Name 30
  Double,                                 !- Feature Data Type 30
  4.2000000000000002,                     !- Feature Value 30
  EPWDesignDailyTemperatureRange,         !- Feature Name 31
  Double,                                 !- Feature Data Type 31
  27.359999999999999,                     !- Feature Value 31
  EPWDesignDehumidDrybulb,                !- Feature Name 32
  Double,                                 !- Feature Data Type 32
  67.280000000000001,                     !- Feature Value 32
  EPWDesignDehumidHumidityRatio,          !- Feature Name 33
  Double,                                 !- Feature Data Type 33
  0.012295426899271008,                   !- Feature Value 33
  EPWDesignCoolingDirectNormal,           !- Feature Name 34
  Double,                                 !- Feature Data Type 34
  985,                                    !- Feature Value 34
  EPWDesignCoolingDiffuseHorizontal,      !- Feature Name 35
  Double,                                 !- Feature Data Type 35
  84;                                     !- Feature Value 35

OS:YearDescription,
  {2c6426c3-1580-420d-a02c-2930acc79d5e}, !- Handle
  ,                                       !- Calendar Year
  Monday;                                 !- Day of Week for Start Day

OS:Site,
  {15fe5ff8-ce28-42ef-aec9-b55960da97d7}, !- Handle
  Denver Intl Ap_CO_USA,                  !- Name
  39.83,                                  !- Latitude {deg}
  -104.65,                                !- Longitude {deg}
  -7,                                     !- Time Zone {hr}
  1650,                                   !- Elevation {m}
  Suburbs;                                !- Terrain

OS:ClimateZones,
  {37707f65-ae42-4ede-91bf-be789b200512}, !- Handle
  ,                                       !- Active Institution
  ,                                       !- Active Year
  ,                                       !- Climate Zone Institution Name 1
  ,                                       !- Climate Zone Document Name 1
  ,                                       !- Climate Zone Document Year 1
  ,                                       !- Climate Zone Value 1
  Building America,                       !- Climate Zone Institution Name 2
  ,                                       !- Climate Zone Document Name 2
  0,                                      !- Climate Zone Document Year 2
  Cold;                                   !- Climate Zone Value 2

OS:Site:WaterMainsTemperature,
  {894c4f5b-a1be-42ca-9724-9a2f2822960d}, !- Handle
  Correlation,                            !- Calculation Method
  ,                                       !- Temperature Schedule Name
  10.8753424657535,                       !- Annual Average Outdoor Air Temperature {C}
  23.1524007936508;                       !- Maximum Difference In Monthly Average Outdoor Air Temperatures {deltaC}

OS:RunPeriodControl:DaylightSavingTime,
  {019cff2f-5ff9-4ab7-8db1-42c1e9bf0088}, !- Handle
  4/7,                                    !- Start Date
  10/26;                                  !- End Date

OS:Site:GroundTemperature:Deep,
  {3493f7ea-7bf7-4569-8050-131a7ab7a5a5}, !- Handle
  10.8753424657535,                       !- January Deep Ground Temperature {C}
  10.8753424657535,                       !- February Deep Ground Temperature {C}
  10.8753424657535,                       !- March Deep Ground Temperature {C}
  10.8753424657535,                       !- April Deep Ground Temperature {C}
  10.8753424657535,                       !- May Deep Ground Temperature {C}
  10.8753424657535,                       !- June Deep Ground Temperature {C}
  10.8753424657535,                       !- July Deep Ground Temperature {C}
  10.8753424657535,                       !- August Deep Ground Temperature {C}
  10.8753424657535,                       !- September Deep Ground Temperature {C}
  10.8753424657535,                       !- October Deep Ground Temperature {C}
  10.8753424657535,                       !- November Deep Ground Temperature {C}
  10.8753424657535;                       !- December Deep Ground Temperature {C}

OS:ThermalZone,
  {9069920d-cd55-4146-8328-e5ada4274c13}, !- Handle
  living zone,                            !- Name
  ,                                       !- Multiplier
  ,                                       !- Ceiling Height {m}
  ,                                       !- Volume {m3}
  ,                                       !- Floor Area {m2}
  ,                                       !- Zone Inside Convection Algorithm
  ,                                       !- Zone Outside Convection Algorithm
  ,                                       !- Zone Conditioning Equipment List Name
  {2b62af7e-5bc7-4ff3-8b77-6d9d52a874f5}, !- Zone Air Inlet Port List
  {3e15f9ce-3f96-487e-a364-f5bbb33291c4}, !- Zone Air Exhaust Port List
  {a5c61e3c-710a-481a-b37d-10c8ccc96d84}, !- Zone Air Node Name
  {42bda6d1-2c94-45e4-9172-53899d612812}, !- Zone Return Air Port List
  ,                                       !- Primary Daylighting Control Name
  ,                                       !- Fraction of Zone Controlled by Primary Daylighting Control
  ,                                       !- Secondary Daylighting Control Name
  ,                                       !- Fraction of Zone Controlled by Secondary Daylighting Control
  ,                                       !- Illuminance Map Name
  ,                                       !- Group Rendering Name
  {2d44e6ee-4dbe-4457-81b9-c683707cac56}, !- Thermostat Name
  No;                                     !- Use Ideal Air Loads

OS:Node,
  {f82784d4-971b-4399-9530-3fb397996a32}, !- Handle
  Node 1,                                 !- Name
  {a5c61e3c-710a-481a-b37d-10c8ccc96d84}, !- Inlet Port
  ;                                       !- Outlet Port

OS:Connection,
  {a5c61e3c-710a-481a-b37d-10c8ccc96d84}, !- Handle
  {b4993223-ac8c-42a8-a065-ac5537752734}, !- Name
  {9069920d-cd55-4146-8328-e5ada4274c13}, !- Source Object
  11,                                     !- Outlet Port
  {f82784d4-971b-4399-9530-3fb397996a32}, !- Target Object
  2;                                      !- Inlet Port

OS:PortList,
  {2b62af7e-5bc7-4ff3-8b77-6d9d52a874f5}, !- Handle
  {bb57ecf1-c6f3-45cb-b24a-22bdd3b91831}, !- Name
  {9069920d-cd55-4146-8328-e5ada4274c13}, !- HVAC Component
  {91a42fe1-caf5-458f-9dae-43a6121be514}; !- Port 1

OS:PortList,
  {3e15f9ce-3f96-487e-a364-f5bbb33291c4}, !- Handle
  {3712e4d9-bebb-4b34-9ac8-872f1e74e75d}, !- Name
  {9069920d-cd55-4146-8328-e5ada4274c13}, !- HVAC Component
  {abe87f8b-05a6-47cc-842c-5bfb8b429ed3}; !- Port 1

OS:PortList,
  {42bda6d1-2c94-45e4-9172-53899d612812}, !- Handle
  {f35d55a6-a9d3-4c85-a5d1-c2473ba40c60}, !- Name
  {9069920d-cd55-4146-8328-e5ada4274c13}; !- HVAC Component

OS:Sizing:Zone,
  {eb9465b5-d8ef-4b46-ac8f-0a9680f8c9e0}, !- Handle
  {9069920d-cd55-4146-8328-e5ada4274c13}, !- Zone or ZoneList Name
  SupplyAirTemperature,                   !- Zone Cooling Design Supply Air Temperature Input Method
  14,                                     !- Zone Cooling Design Supply Air Temperature {C}
  11.11,                                  !- Zone Cooling Design Supply Air Temperature Difference {deltaC}
  SupplyAirTemperature,                   !- Zone Heating Design Supply Air Temperature Input Method
  40,                                     !- Zone Heating Design Supply Air Temperature {C}
  11.11,                                  !- Zone Heating Design Supply Air Temperature Difference {deltaC}
  0.0085,                                 !- Zone Cooling Design Supply Air Humidity Ratio {kg-H2O/kg-air}
  0.008,                                  !- Zone Heating Design Supply Air Humidity Ratio {kg-H2O/kg-air}
  ,                                       !- Zone Heating Sizing Factor
  ,                                       !- Zone Cooling Sizing Factor
  DesignDay,                              !- Cooling Design Air Flow Method
  ,                                       !- Cooling Design Air Flow Rate {m3/s}
  ,                                       !- Cooling Minimum Air Flow per Zone Floor Area {m3/s-m2}
  ,                                       !- Cooling Minimum Air Flow {m3/s}
  ,                                       !- Cooling Minimum Air Flow Fraction
  DesignDay,                              !- Heating Design Air Flow Method
  ,                                       !- Heating Design Air Flow Rate {m3/s}
  ,                                       !- Heating Maximum Air Flow per Zone Floor Area {m3/s-m2}
  ,                                       !- Heating Maximum Air Flow {m3/s}
  ,                                       !- Heating Maximum Air Flow Fraction
  ,                                       !- Design Zone Air Distribution Effectiveness in Cooling Mode
  ,                                       !- Design Zone Air Distribution Effectiveness in Heating Mode
  No,                                     !- Account for Dedicated Outdoor Air System
  NeutralSupplyAir,                       !- Dedicated Outdoor Air System Control Strategy
  autosize,                               !- Dedicated Outdoor Air Low Setpoint Temperature for Design {C}
  autosize;                               !- Dedicated Outdoor Air High Setpoint Temperature for Design {C}

OS:ZoneHVAC:EquipmentList,
  {c516bf83-033f-4974-ae35-75f7bbae08b6}, !- Handle
  Zone HVAC Equipment List 1,             !- Name
  {9069920d-cd55-4146-8328-e5ada4274c13}, !- Thermal Zone
  ,                                       !- Load Distribution Scheme
  {504bc316-6f10-4479-8678-25c43beeb448}, !- Zone Equipment 1
  1,                                      !- Zone Equipment Cooling Sequence 1
  1,                                      !- Zone Equipment Heating or No-Load Sequence 1
  {d4057d68-4162-4a76-bb4b-847fe224ce02}, !- Zone Equipment 2
  2,                                      !- Zone Equipment Cooling Sequence 2
  2;                                      !- Zone Equipment Heating or No-Load Sequence 2

OS:ThermalZone,
  {a34de71d-ae3d-4c04-9dd0-fea05c40d82e}, !- Handle
  garage zone,                            !- Name
  ,                                       !- Multiplier
  ,                                       !- Ceiling Height {m}
  ,                                       !- Volume {m3}
  ,                                       !- Floor Area {m2}
  ,                                       !- Zone Inside Convection Algorithm
  ,                                       !- Zone Outside Convection Algorithm
  ,                                       !- Zone Conditioning Equipment List Name
  {a25280f8-de18-4f92-a8e1-5121e669b0e1}, !- Zone Air Inlet Port List
  {0f0c97cd-ddff-42f8-8596-416c7d697a0b}, !- Zone Air Exhaust Port List
  {93e319df-ffda-4658-bbcc-a5a5ab5afab4}, !- Zone Air Node Name
  {81e92217-a0c1-4cc5-b062-75b3041687ca}, !- Zone Return Air Port List
  ,                                       !- Primary Daylighting Control Name
  ,                                       !- Fraction of Zone Controlled by Primary Daylighting Control
  ,                                       !- Secondary Daylighting Control Name
  ,                                       !- Fraction of Zone Controlled by Secondary Daylighting Control
  ,                                       !- Illuminance Map Name
  ,                                       !- Group Rendering Name
  ,                                       !- Thermostat Name
  No;                                     !- Use Ideal Air Loads

OS:Node,
  {1ebd45b9-60a4-4d7e-8161-598cb6cbf1bb}, !- Handle
  Node 2,                                 !- Name
  {93e319df-ffda-4658-bbcc-a5a5ab5afab4}, !- Inlet Port
  ;                                       !- Outlet Port

OS:Connection,
  {93e319df-ffda-4658-bbcc-a5a5ab5afab4}, !- Handle
  {866b205e-f77f-4f46-8ea0-c951203719ef}, !- Name
  {a34de71d-ae3d-4c04-9dd0-fea05c40d82e}, !- Source Object
  11,                                     !- Outlet Port
  {1ebd45b9-60a4-4d7e-8161-598cb6cbf1bb}, !- Target Object
  2;                                      !- Inlet Port

OS:PortList,
  {a25280f8-de18-4f92-a8e1-5121e669b0e1}, !- Handle
  {6acd5379-b6b2-4824-81ed-d67843bd223d}, !- Name
  {a34de71d-ae3d-4c04-9dd0-fea05c40d82e}; !- HVAC Component

OS:PortList,
  {0f0c97cd-ddff-42f8-8596-416c7d697a0b}, !- Handle
  {f26b61a8-0887-44a9-a639-b73afa8ef60b}, !- Name
  {a34de71d-ae3d-4c04-9dd0-fea05c40d82e}; !- HVAC Component

OS:PortList,
  {81e92217-a0c1-4cc5-b062-75b3041687ca}, !- Handle
  {21075bd4-d10b-4b12-95d0-fdad2c6fea17}, !- Name
  {a34de71d-ae3d-4c04-9dd0-fea05c40d82e}; !- HVAC Component

OS:Sizing:Zone,
  {b45736f7-9efc-43dc-8028-75696ffda3af}, !- Handle
  {a34de71d-ae3d-4c04-9dd0-fea05c40d82e}, !- Zone or ZoneList Name
  SupplyAirTemperature,                   !- Zone Cooling Design Supply Air Temperature Input Method
  14,                                     !- Zone Cooling Design Supply Air Temperature {C}
  11.11,                                  !- Zone Cooling Design Supply Air Temperature Difference {deltaC}
  SupplyAirTemperature,                   !- Zone Heating Design Supply Air Temperature Input Method
  40,                                     !- Zone Heating Design Supply Air Temperature {C}
  11.11,                                  !- Zone Heating Design Supply Air Temperature Difference {deltaC}
  0.0085,                                 !- Zone Cooling Design Supply Air Humidity Ratio {kg-H2O/kg-air}
  0.008,                                  !- Zone Heating Design Supply Air Humidity Ratio {kg-H2O/kg-air}
  ,                                       !- Zone Heating Sizing Factor
  ,                                       !- Zone Cooling Sizing Factor
  DesignDay,                              !- Cooling Design Air Flow Method
  ,                                       !- Cooling Design Air Flow Rate {m3/s}
  ,                                       !- Cooling Minimum Air Flow per Zone Floor Area {m3/s-m2}
  ,                                       !- Cooling Minimum Air Flow {m3/s}
  ,                                       !- Cooling Minimum Air Flow Fraction
  DesignDay,                              !- Heating Design Air Flow Method
  ,                                       !- Heating Design Air Flow Rate {m3/s}
  ,                                       !- Heating Maximum Air Flow per Zone Floor Area {m3/s-m2}
  ,                                       !- Heating Maximum Air Flow {m3/s}
  ,                                       !- Heating Maximum Air Flow Fraction
  ,                                       !- Design Zone Air Distribution Effectiveness in Cooling Mode
  ,                                       !- Design Zone Air Distribution Effectiveness in Heating Mode
  No,                                     !- Account for Dedicated Outdoor Air System
  NeutralSupplyAir,                       !- Dedicated Outdoor Air System Control Strategy
  autosize,                               !- Dedicated Outdoor Air Low Setpoint Temperature for Design {C}
  autosize;                               !- Dedicated Outdoor Air High Setpoint Temperature for Design {C}

OS:ZoneHVAC:EquipmentList,
  {6b2f1606-1407-44c8-823d-c7f069660620}, !- Handle
  Zone HVAC Equipment List 2,             !- Name
  {a34de71d-ae3d-4c04-9dd0-fea05c40d82e}; !- Thermal Zone

OS:Space,
  {2de436b6-ac60-4dd1-bbc0-db0e5e7dfc71}, !- Handle
  garage space,                           !- Name
  {3dbda111-aee1-4470-9484-b4298b916d00}, !- Space Type Name
  ,                                       !- Default Construction Set Name
  ,                                       !- Default Schedule Set Name
  -0,                                     !- Direction of Relative North {deg}
  0,                                      !- X Origin {m}
  0,                                      !- Y Origin {m}
  0,                                      !- Z Origin {m}
  ,                                       !- Building Story Name
  {a34de71d-ae3d-4c04-9dd0-fea05c40d82e}; !- Thermal Zone Name

OS:Surface,
  {dc2ea5d1-5cf2-4f17-a86b-9e8eee93e41f}, !- Handle
  Surface 1,                              !- Name
  Floor,                                  !- Surface Type
  {283a3974-b8cc-43be-9a06-317df48a0217}, !- Construction Name
  {2de436b6-ac60-4dd1-bbc0-db0e5e7dfc71}, !- Space Name
  Foundation,                             !- Outside Boundary Condition
  {391ff8d5-4ddd-42ae-a2db-a1d653eebe93}, !- Outside Boundary Condition Object
  NoSun,                                  !- Sun Exposure
  NoWind,                                 !- Wind Exposure
  ,                                       !- View Factor to Ground
  ,                                       !- Number of Vertices
  10.1737390518778, -3.6576, 0,           !- X,Y,Z Vertex 1 {m}
  10.1737390518778, 3.6576, 0,            !- X,Y,Z Vertex 2 {m}
  13.8313390518778, 3.6576, 0,            !- X,Y,Z Vertex 3 {m}
  13.8313390518778, -3.6576, 0;           !- X,Y,Z Vertex 4 {m}

OS:Surface,
  {00d529f8-ee68-48cd-9993-f3a4fd96b1bc}, !- Handle
  Surface 2,                              !- Name
  Wall,                                   !- Surface Type
  {3e0a3f85-01be-4472-98cf-84ca295728f4}, !- Construction Name
  {2de436b6-ac60-4dd1-bbc0-db0e5e7dfc71}, !- Space Name
  Surface,                                !- Outside Boundary Condition
  {d96cd032-68a2-4dd8-b75f-b7c78e12a490}, !- Outside Boundary Condition Object
  NoSun,                                  !- Sun Exposure
  NoWind,                                 !- Wind Exposure
  ,                                       !- View Factor to Ground
  ,                                       !- Number of Vertices
  10.1737390518778, 3.6576, 2.4384,       !- X,Y,Z Vertex 1 {m}
  10.1737390518778, 3.6576, 0,            !- X,Y,Z Vertex 2 {m}
  10.1737390518778, 0, 0,                 !- X,Y,Z Vertex 3 {m}
  10.1737390518778, 0, 2.4384;            !- X,Y,Z Vertex 4 {m}

OS:Surface,
  {732e9c87-e93c-4756-b56f-950ee5c093a3}, !- Handle
  Surface 3,                              !- Name
  Wall,                                   !- Surface Type
  {3e0a3f85-01be-4472-98cf-84ca295728f4}, !- Construction Name
  {2de436b6-ac60-4dd1-bbc0-db0e5e7dfc71}, !- Space Name
  Surface,                                !- Outside Boundary Condition
  {a26c05fe-185f-4a46-a02b-88601a0aeefc}, !- Outside Boundary Condition Object
  NoSun,                                  !- Sun Exposure
  NoWind,                                 !- Wind Exposure
  ,                                       !- View Factor to Ground
  ,                                       !- Number of Vertices
  13.8313390518778, 3.6576, 2.4384,       !- X,Y,Z Vertex 1 {m}
  13.8313390518778, 3.6576, 0,            !- X,Y,Z Vertex 2 {m}
  10.1737390518778, 3.6576, 0,            !- X,Y,Z Vertex 3 {m}
  10.1737390518778, 3.6576, 2.4384;       !- X,Y,Z Vertex 4 {m}

OS:Surface,
  {47a7d921-7fb7-4a93-8671-fd4aff8ba91f}, !- Handle
  Surface 4,                              !- Name
  Wall,                                   !- Surface Type
  {f083f242-2c30-485c-b6ff-e4cb2ff364c0}, !- Construction Name
  {2de436b6-ac60-4dd1-bbc0-db0e5e7dfc71}, !- Space Name
  Outdoors,                               !- Outside Boundary Condition
  ,                                       !- Outside Boundary Condition Object
  SunExposed,                             !- Sun Exposure
  WindExposed,                            !- Wind Exposure
  ,                                       !- View Factor to Ground
  ,                                       !- Number of Vertices
  13.8313390518778, -3.6576, 2.4384,      !- X,Y,Z Vertex 1 {m}
  13.8313390518778, -3.6576, 0,           !- X,Y,Z Vertex 2 {m}
  13.8313390518778, 3.6576, 0,            !- X,Y,Z Vertex 3 {m}
  13.8313390518778, 3.6576, 2.4384;       !- X,Y,Z Vertex 4 {m}

OS:Surface,
  {51fbaf23-31f6-40b9-85a4-443532c169a6}, !- Handle
  Surface 5,                              !- Name
  Wall,                                   !- Surface Type
  {f083f242-2c30-485c-b6ff-e4cb2ff364c0}, !- Construction Name
  {2de436b6-ac60-4dd1-bbc0-db0e5e7dfc71}, !- Space Name
  Outdoors,                               !- Outside Boundary Condition
  ,                                       !- Outside Boundary Condition Object