!- NOTE: Auto-generated from /test/osw_files/SFD_1story_UB_UA_ASHP2_HPWH.osw

OS:Version,
  {eaff312a-628d-4cc7-b04b-f15f12443ece}, !- Handle
  2.7.0;                                  !- Version Identifier

OS:SimulationControl,
  {c3f2b801-c420-420a-a4ae-69ca98bb1a44}, !- Handle
  ,                                       !- Do Zone Sizing Calculation
  ,                                       !- Do System Sizing Calculation
  ,                                       !- Do Plant Sizing Calculation
  No;                                     !- Run Simulation for Sizing Periods

OS:Timestep,
  {b4684568-b287-4a6f-98e0-74e0abe2547c}, !- Handle
  6;                                      !- Number of Timesteps per Hour

OS:ShadowCalculation,
  {70da4a83-7677-4836-a50e-ab9510e2682a}, !- Handle
  20,                                     !- Calculation Frequency
  200;                                    !- Maximum Figures in Shadow Overlap Calculations

OS:SurfaceConvectionAlgorithm:Outside,
  {cbd347e0-1f6c-46ea-ad23-0c7ebb6189ce}, !- Handle
  DOE-2;                                  !- Algorithm

OS:SurfaceConvectionAlgorithm:Inside,
  {233bf54c-31cc-49d1-98c0-7eeb6d578c88}, !- Handle
  TARP;                                   !- Algorithm

OS:ZoneCapacitanceMultiplier:ResearchSpecial,
  {cbbceaeb-1792-4341-bbfa-bc302fcaa945}, !- Handle
  ,                                       !- Temperature Capacity Multiplier
  15,                                     !- Humidity Capacity Multiplier
  ;                                       !- Carbon Dioxide Capacity Multiplier

OS:RunPeriod,
  {313cbef4-ddce-403d-9658-f99a3c29792e}, !- Handle
  Run Period 1,                           !- Name
  1,                                      !- Begin Month
  1,                                      !- Begin Day of Month
  12,                                     !- End Month
  31,                                     !- End Day of Month
  ,                                       !- Use Weather File Holidays and Special Days
  ,                                       !- Use Weather File Daylight Saving Period
  ,                                       !- Apply Weekend Holiday Rule
  ,                                       !- Use Weather File Rain Indicators
  ,                                       !- Use Weather File Snow Indicators
  ;                                       !- Number of Times Runperiod to be Repeated

OS:WeatherFile,
  {03ef9bf8-6835-4099-ae6e-5c1d0cc57a0b}, !- Handle
  Denver Intl Ap,                         !- City
  CO,                                     !- State Province Region
  USA,                                    !- Country
  TMY3,                                   !- Data Source
  725650,                                 !- WMO Number
  39.83,                                  !- Latitude {deg}
  -104.65,                                !- Longitude {deg}
  -7,                                     !- Time Zone {hr}
  1650,                                   !- Elevation {m}
  file:../tests/USA_CO_Denver_Intl_AP_725650_TMY3.epw, !- Url
  E23378AA;                               !- Checksum

OS:AdditionalProperties,
  {f28d4cac-8a54-40ba-b34a-97855d52c9f1}, !- Handle
  {03ef9bf8-6835-4099-ae6e-5c1d0cc57a0b}, !- Object Name
  EPWHeaderCity,                          !- Feature Name 1
  String,                                 !- Feature Data Type 1
  Denver Intl Ap,                         !- Feature Value 1
  EPWHeaderState,                         !- Feature Name 2
  String,                                 !- Feature Data Type 2
  CO,                                     !- Feature Value 2
  EPWHeaderCountry,                       !- Feature Name 3
  String,                                 !- Feature Data Type 3
  USA,                                    !- Feature Value 3
  EPWHeaderDataSource,                    !- Feature Name 4
  String,                                 !- Feature Data Type 4
  TMY3,                                   !- Feature Value 4
  EPWHeaderStation,                       !- Feature Name 5
  String,                                 !- Feature Data Type 5
  725650,                                 !- Feature Value 5
  EPWHeaderLatitude,                      !- Feature Name 6
  Double,                                 !- Feature Data Type 6
  39.829999999999998,                     !- Feature Value 6
  EPWHeaderLongitude,                     !- Feature Name 7
  Double,                                 !- Feature Data Type 7
  -104.65000000000001,                    !- Feature Value 7
  EPWHeaderTimezone,                      !- Feature Name 8
  Double,                                 !- Feature Data Type 8
  -7,                                     !- Feature Value 8
  EPWHeaderAltitude,                      !- Feature Name 9
  Double,                                 !- Feature Data Type 9
  5413.3858267716532,                     !- Feature Value 9
  EPWHeaderLocalPressure,                 !- Feature Name 10
  Double,                                 !- Feature Data Type 10
  0.81937567683596546,                    !- Feature Value 10
  EPWHeaderRecordsPerHour,                !- Feature Name 11
  Double,                                 !- Feature Data Type 11
  1,                                      !- Feature Value 11
  EPWDataAnnualAvgDrybulb,                !- Feature Name 12
  Double,                                 !- Feature Data Type 12
  51.575616438356228,                     !- Feature Value 12
  EPWDataAnnualMinDrybulb,                !- Feature Name 13
  Double,                                 !- Feature Data Type 13
  -2.9200000000000017,                    !- Feature Value 13
  EPWDataAnnualMaxDrybulb,                !- Feature Name 14
  Double,                                 !- Feature Data Type 14
  104,                                    !- Feature Value 14
  EPWDataCDD50F,                          !- Feature Name 15
  Double,                                 !- Feature Data Type 15
  3072.2925000000005,                     !- Feature Value 15
  EPWDataCDD65F,                          !- Feature Name 16
  Double,                                 !- Feature Data Type 16
  883.62000000000035,                     !- Feature Value 16
  EPWDataHDD50F,                          !- Feature Name 17
  Double,                                 !- Feature Data Type 17
  2497.1925000000001,                     !- Feature Value 17
  EPWDataHDD65F,                          !- Feature Name 18
  Double,                                 !- Feature Data Type 18
  5783.5200000000013,                     !- Feature Value 18
  EPWDataAnnualAvgWindspeed,              !- Feature Name 19
  Double,                                 !- Feature Data Type 19
  3.9165296803649667,                     !- Feature Value 19
  EPWDataMonthlyAvgDrybulbs,              !- Feature Name 20
  String,                                 !- Feature Data Type 20
  33.4191935483871&#4431.90142857142857&#4443.02620967741937&#4442.48624999999999&#4459.877741935483854&#4473.57574999999997&#4472.07975806451608&#4472.70008064516134&#4466.49200000000006&#4450.079112903225806&#4437.218250000000005&#4434.582177419354835, !- Feature Value 20
  EPWDataGroundMonthlyTemps,              !- Feature Name 21
  String,                                 !- Feature Data Type 21
  44.08306285945173&#4440.89570904991865&#4440.64045432632048&#4442.153016571250646&#4448.225111118704206&#4454.268919273837525&#4459.508577937551024&#4462.82777283423508&#4463.10975667174995&#4460.41014950381947&#4455.304105212311526&#4449.445696474514364, !- Feature Value 21
  EPWDataWSF,                             !- Feature Name 22
  Double,                                 !- Feature Data Type 22
  0.58999999999999997,                    !- Feature Value 22
  EPWDataMonthlyAvgDailyHighDrybulbs,     !- Feature Name 23
  String,                                 !- Feature Data Type 23
  47.41032258064516&#4446.58642857142857&#4455.15032258064517&#4453.708&#4472.80193548387098&#4488.67600000000002&#4486.1858064516129&#4485.87225806451613&#4482.082&#4463.18064516129033&#4448.73400000000001&#4448.87935483870968, !- Feature Value 23
  EPWDataMonthlyAvgDailyLowDrybulbs,      !- Feature Name 24
  String,                                 !- Feature Data Type 24
  19.347741935483874&#4419.856428571428573&#4430.316129032258065&#4431.112&#4447.41612903225806&#4457.901999999999994&#4459.063870967741934&#4460.956774193548384&#4452.352000000000004&#4438.41612903225806&#4427.002000000000002&#4423.02903225806451, !- Feature Value 24
  EPWDesignHeatingDrybulb,                !- Feature Name 25
  Double,                                 !- Feature Data Type 25
  6.8000000000000007,                     !- Feature Value 25
  EPWDesignHeatingWindspeed,              !- Feature Name 26
  Double,                                 !- Feature Data Type 26
  12,                                     !- Feature Value 26
  EPWDesignCoolingDrybulb,                !- Feature Name 27
  Double,                                 !- Feature Data Type 27
  91.760000000000005,                     !- Feature Value 27
  EPWDesignCoolingWetbulb,                !- Feature Name 28
  Double,                                 !- Feature Data Type 28
  60.079999999999998,                     !- Feature Value 28
  EPWDesignCoolingHumidityRatio,          !- Feature Name 29
  Double,                                 !- Feature Data Type 29
  0.006050392196571398,                   !- Feature Value 29
  EPWDesignCoolingWindspeed,              !- Feature Name 30
  Double,                                 !- Feature Data Type 30
  4.2000000000000002,                     !- Feature Value 30
  EPWDesignDailyTemperatureRange,         !- Feature Name 31
  Double,                                 !- Feature Data Type 31
  27.359999999999999,                     !- Feature Value 31
  EPWDesignDehumidDrybulb,                !- Feature Name 32
  Double,                                 !- Feature Data Type 32
  67.280000000000001,                     !- Feature Value 32
  EPWDesignDehumidHumidityRatio,          !- Feature Name 33
  Double,                                 !- Feature Data Type 33
  0.012295426899271008,                   !- Feature Value 33
  EPWDesignCoolingDirectNormal,           !- Feature Name 34
  Double,                                 !- Feature Data Type 34
  985,                                    !- Feature Value 34
  EPWDesignCoolingDiffuseHorizontal,      !- Feature Name 35
  Double,                                 !- Feature Data Type 35
  84;                                     !- Feature Value 35

OS:YearDescription,
  {10be6115-a6d9-40d8-a3d1-8c8e251ecd83}, !- Handle
  ,                                       !- Calendar Year
  Monday;                                 !- Day of Week for Start Day

OS:Site,
  {fe1a8ea4-7656-46a0-be93-80512aa4ce00}, !- Handle
  Denver Intl Ap_CO_USA,                  !- Name
  39.83,                                  !- Latitude {deg}
  -104.65,                                !- Longitude {deg}
  -7,                                     !- Time Zone {hr}
  1650,                                   !- Elevation {m}
  Suburbs;                                !- Terrain

OS:ClimateZones,
  {9b420e51-2e4a-4e5b-822f-9c1fdcc386f9}, !- Handle
  ,                                       !- Active Institution
  ,                                       !- Active Year
  ,                                       !- Climate Zone Institution Name 1
  ,                                       !- Climate Zone Document Name 1
  ,                                       !- Climate Zone Document Year 1
  ,                                       !- Climate Zone Value 1
  Building America,                       !- Climate Zone Institution Name 2
  ,                                       !- Climate Zone Document Name 2
  0,                                      !- Climate Zone Document Year 2
  Cold;                                   !- Climate Zone Value 2

OS:Site:WaterMainsTemperature,
  {93514da3-5f73-47b8-84fb-77abd92b027a}, !- Handle
  Correlation,                            !- Calculation Method
  ,                                       !- Temperature Schedule Name
  10.8753424657535,                       !- Annual Average Outdoor Air Temperature {C}
  23.1524007936508;                       !- Maximum Difference In Monthly Average Outdoor Air Temperatures {deltaC}

OS:RunPeriodControl:DaylightSavingTime,
  {ef3fa518-1a77-4526-af1e-3122fa27afcc}, !- Handle
  4/7,                                    !- Start Date
  10/26;                                  !- End Date

OS:Site:GroundTemperature:Deep,
  {f1a091d4-9d6a-4cbc-bd9c-3d1fd13b44a8}, !- Handle
  10.8753424657535,                       !- January Deep Ground Temperature {C}
  10.8753424657535,                       !- February Deep Ground Temperature {C}
  10.8753424657535,                       !- March Deep Ground Temperature {C}
  10.8753424657535,                       !- April Deep Ground Temperature {C}
  10.8753424657535,                       !- May Deep Ground Temperature {C}
  10.8753424657535,                       !- June Deep Ground Temperature {C}
  10.8753424657535,                       !- July Deep Ground Temperature {C}
  10.8753424657535,                       !- August Deep Ground Temperature {C}
  10.8753424657535,                       !- September Deep Ground Temperature {C}
  10.8753424657535,                       !- October Deep Ground Temperature {C}
  10.8753424657535,                       !- November Deep Ground Temperature {C}
  10.8753424657535;                       !- December Deep Ground Temperature {C}

OS:ThermalZone,
  {9c32e418-0362-4c67-a06b-2a2832695b44}, !- Handle
  living zone,                            !- Name
  ,                                       !- Multiplier
  ,                                       !- Ceiling Height {m}
  ,                                       !- Volume {m3}
  ,                                       !- Floor Area {m2}
  ,                                       !- Zone Inside Convection Algorithm
  ,                                       !- Zone Outside Convection Algorithm
  ,                                       !- Zone Conditioning Equipment List Name
  {e36baa66-9d50-475d-be0f-463d770f6183}, !- Zone Air Inlet Port List
  {6f6da9fe-bc71-4d6e-9b71-01d1f5b39e18}, !- Zone Air Exhaust Port List
  {003fba1e-7203-4244-abbd-f5ca89439371}, !- Zone Air Node Name
  {11ad93c7-1d6c-49bc-b6e4-4c86865ddf19}, !- Zone Return Air Port List
  ,                                       !- Primary Daylighting Control Name
  ,                                       !- Fraction of Zone Controlled by Primary Daylighting Control
  ,                                       !- Secondary Daylighting Control Name
  ,                                       !- Fraction of Zone Controlled by Secondary Daylighting Control
  ,                                       !- Illuminance Map Name
  ,                                       !- Group Rendering Name
  {24deb771-740d-40c7-bb56-52fa18080903}, !- Thermostat Name
  No;                                     !- Use Ideal Air Loads

OS:Node,
  {556ca9cb-27e7-4bdb-8a1e-e99739a6f587}, !- Handle
  Node 1,                                 !- Name
  {003fba1e-7203-4244-abbd-f5ca89439371}, !- Inlet Port
  ;                                       !- Outlet Port

OS:Connection,
  {003fba1e-7203-4244-abbd-f5ca89439371}, !- Handle
  {c578ed2e-a753-4530-b952-e7a5384def9d}, !- Name
  {9c32e418-0362-4c67-a06b-2a2832695b44}, !- Source Object
  11,                                     !- Outlet Port
  {556ca9cb-27e7-4bdb-8a1e-e99739a6f587}, !- Target Object
  2;                                      !- Inlet Port

OS:PortList,
  {e36baa66-9d50-475d-be0f-463d770f6183}, !- Handle
  {bba81801-80fa-40ad-81b1-326ac1e2ded2}, !- Name
  {9c32e418-0362-4c67-a06b-2a2832695b44}, !- HVAC Component
  {4bc3950e-fb6f-4c3e-abae-bca6271deee5}; !- Port 1

OS:PortList,
  {6f6da9fe-bc71-4d6e-9b71-01d1f5b39e18}, !- Handle
  {f975c5be-6016-442d-b768-5936aa792d0e}, !- Name
  {9c32e418-0362-4c67-a06b-2a2832695b44}; !- HVAC Component

OS:PortList,
  {11ad93c7-1d6c-49bc-b6e4-4c86865ddf19}, !- Handle
  {04274ffe-70bf-40ed-85dd-3958940facbb}, !- Name
  {9c32e418-0362-4c67-a06b-2a2832695b44}, !- HVAC Component
  {192630bb-a0d2-4bdb-8cb5-04f4077c57a2}; !- Port 1

OS:Sizing:Zone,
  {5190ef15-ebfa-4e0f-ad0d-7ce9473b4f9e}, !- Handle
  {9c32e418-0362-4c67-a06b-2a2832695b44}, !- Zone or ZoneList Name
  SupplyAirTemperature,                   !- Zone Cooling Design Supply Air Temperature Input Method
  14,                                     !- Zone Cooling Design Supply Air Temperature {C}
  11.11,                                  !- Zone Cooling Design Supply Air Temperature Difference {deltaC}
  SupplyAirTemperature,                   !- Zone Heating Design Supply Air Temperature Input Method
  40,                                     !- Zone Heating Design Supply Air Temperature {C}
  11.11,                                  !- Zone Heating Design Supply Air Temperature Difference {deltaC}
  0.0085,                                 !- Zone Cooling Design Supply Air Humidity Ratio {kg-H2O/kg-air}
  0.008,                                  !- Zone Heating Design Supply Air Humidity Ratio {kg-H2O/kg-air}
  ,                                       !- Zone Heating Sizing Factor
  ,                                       !- Zone Cooling Sizing Factor
  DesignDay,                              !- Cooling Design Air Flow Method
  ,                                       !- Cooling Design Air Flow Rate {m3/s}
  ,                                       !- Cooling Minimum Air Flow per Zone Floor Area {m3/s-m2}
  ,                                       !- Cooling Minimum Air Flow {m3/s}
  ,                                       !- Cooling Minimum Air Flow Fraction
  DesignDay,                              !- Heating Design Air Flow Method
  ,                                       !- Heating Design Air Flow Rate {m3/s}
  ,                                       !- Heating Maximum Air Flow per Zone Floor Area {m3/s-m2}
  ,                                       !- Heating Maximum Air Flow {m3/s}
  ,                                       !- Heating Maximum Air Flow Fraction
  ,                                       !- Design Zone Air Distribution Effectiveness in Cooling Mode
  ,                                       !- Design Zone Air Distribution Effectiveness in Heating Mode
  No,                                     !- Account for Dedicated Outdoor Air System
  NeutralSupplyAir,                       !- Dedicated Outdoor Air System Control Strategy
  autosize,                               !- Dedicated Outdoor Air Low Setpoint Temperature for Design {C}
  autosize;                               !- Dedicated Outdoor Air High Setpoint Temperature for Design {C}

OS:ZoneHVAC:EquipmentList,
  {a3fa53b7-0298-4e9b-b584-9af48337e2a8}, !- Handle
  Zone HVAC Equipment List 1,             !- Name
  {9c32e418-0362-4c67-a06b-2a2832695b44}, !- Thermal Zone
  ,                                       !- Load Distribution Scheme
  {379ecad1-ab71-4f5d-8cf6-805534e91d5d}, !- Zone Equipment 1
  1,                                      !- Zone Equipment Cooling Sequence 1
  1;                                      !- Zone Equipment Heating or No-Load Sequence 1

OS:Space,
  {5ca69f03-b7dc-45aa-add7-542ec78597ff}, !- Handle
  living space,                           !- Name
  {4d465cc4-cd8a-4248-9432-840c4e89c692}, !- Space Type Name
  ,                                       !- Default Construction Set Name
  ,                                       !- Default Schedule Set Name
  -0,                                     !- Direction of Relative North {deg}
  0,                                      !- X Origin {m}
  0,                                      !- Y Origin {m}
  0,                                      !- Z Origin {m}
  ,                                       !- Building Story Name
  {9c32e418-0362-4c67-a06b-2a2832695b44}, !- Thermal Zone Name
  ,                                       !- Part of Total Floor Area
  ,                                       !- Design Specification Outdoor Air Object Name
  {0c991adc-9c56-4de7-8123-c87191ced28e}; !- Building Unit Name

OS:Surface,
  {f3129233-0d54-4771-85fb-e5c418180c0f}, !- Handle
  Surface 1,                              !- Name
  Floor,                                  !- Surface Type
  {f4977c91-ba66-4960-826e-b48e103d6f4e}, !- Construction Name
  {5ca69f03-b7dc-45aa-add7-542ec78597ff}, !- Space Name
  Surface,                                !- Outside Boundary Condition
  {3dec43d2-033c-4c86-b2ce-49f0a981ef97}, !- Outside Boundary Condition Object
  NoSun,                                  !- Sun Exposure
  NoWind,                                 !- Wind Exposure
  ,                                       !- View Factor to Ground
  ,                                       !- Number of Vertices
  0, 0, 0,                                !- X,Y,Z Vertex 1 {m}
  0, 12.4434078933385, 0,                 !- X,Y,Z Vertex 2 {m}
  22.3981342080094, 12.4434078933385, 0,  !- X,Y,Z Vertex 3 {m}
  22.3981342080094, 0, 0;                 !- X,Y,Z Vertex 4 {m}

OS:Surface,
  {49aaa4ef-0577-4540-8399-712e6d13e513}, !- Handle
  Surface 2,                              !- Name
  Wall,                                   !- Surface Type
  {94d25c37-afcb-4bf5-8c06-7222ce5fc6cd}, !- Construction Name
  {5ca69f03-b7dc-45aa-add7-542ec78597ff}, !- Space Name
  Outdoors,                               !- Outside Boundary Condition
  ,                                       !- Outside Boundary Condition Object
  SunExposed,                             !- Sun Exposure
  WindExposed,                            !- Wind Exposure
  ,                                       !- View Factor to Ground
  ,                                       !- Number of Vertices
  0, 12.4434078933385, 2.4384,            !- X,Y,Z Vertex 1 {m}
  0, 12.4434078933385, 0,                 !- X,Y,Z Vertex 2 {m}
  0, 0, 0,                                !- X,Y,Z Vertex 3 {m}
  0, 0, 2.4384;                           !- X,Y,Z Vertex 4 {m}

OS:Surface,
  {c5ae0727-7765-431e-b809-c7b668820834}, !- Handle
  Surface 3,                              !- Name
  Wall,                                   !- Surface Type
  {94d25c37-afcb-4bf5-8c06-7222ce5fc6cd}, !- Construction Name
  {5ca69f03-b7dc-45aa-add7-542ec78597ff}, !- Space Name
  Outdoors,                               !- Outside Boundary Condition
  ,                                       !- Outside Boundary Condition Object
  SunExposed,                             !- Sun Exposure
  WindExposed,                            !- Wind Exposure
  ,                                       !- View Factor to Ground
  ,                                       !- Number of Vertices
  22.3981342080094, 12.4434078933385, 2.4384, !- X,Y,Z Vertex 1 {m}
  22.3981342080094, 12.4434078933385, 0,  !- X,Y,Z Vertex 2 {m}
  0, 12.4434078933385, 0,                 !- X,Y,Z Vertex 3 {m}
  0, 12.4434078933385, 2.4384;            !- X,Y,Z Vertex 4 {m}

OS:Surface,
  {fe6e0210-e3b2-4cd2-9f43-7a0171f6aa72}, !- Handle
  Surface 4,                              !- Name
  Wall,                                   !- Surface Type
  {94d25c37-afcb-4bf5-8c06-7222ce5fc6cd}, !- Construction Name
  {5ca69f03-b7dc-45aa-add7-542ec78597ff}, !- Space Name
  Outdoors,                               !- Outside Boundary Condition
  ,                                       !- Outside Boundary Condition Object
  SunExposed,                             !- Sun Exposure
  WindExposed,                            !- Wind Exposure
  ,                                       !- View Factor to Ground
  ,                                       !- Number of Vertices
  22.3981342080094, 0, 2.4384,            !- X,Y,Z Vertex 1 {m}
  22.3981342080094, 0, 0,                 !- X,Y,Z Vertex 2 {m}
  22.3981342080094, 12.4434078933385, 0,  !- X,Y,Z Vertex 3 {m}
  22.3981342080094, 12.4434078933385, 2.4384; !- X,Y,Z Vertex 4 {m}

OS:Surface,
  {95f65453-04b0-4a37-afe3-007bf3b0c331}, !- Handle
  Surface 5,                              !- Name
  Wall,                                   !- Surface Type
  {94d25c37-afcb-4bf5-8c06-7222ce5fc6cd}, !- Construction Name
  {5ca69f03-b7dc-45aa-add7-542ec78597ff}, !- Space Name
  Outdoors,                               !- Outside Boundary Condition
  ,                                       !- Outside Boundary Condition Object
  SunExposed,                             !- Sun Exposure
  WindExposed,                            !- Wind Exposure
  ,                                       !- View Factor to Ground
  ,                                       !- Number of Vertices
  22.3981342080094, 0, 0,                 !- X,Y,Z Vertex 1 {m}
  22.3981342080094, 0, 2.4384,            !- X,Y,Z Vertex 2 {m}
  1.91951428571429, 0, 2.4384,            !- X,Y,Z Vertex 3 {m}
  1.91951428571429, 0, 0;                 !- X,Y,Z Vertex 4 {m}

OS:Surface,
  {452ffcd9-1aa6-448c-b69f-5153bdba2811}, !- Handle
  Surface 6,                              !- Name
  RoofCeiling,                            !- Surface Type
  {464ba3cf-1eb6-4330-afc5-be7af220026a}, !- Construction Name
  {5ca69f03-b7dc-45aa-add7-542ec78597ff}, !- Space Name
  Surface,                                !- Outside Boundary Condition
  {075ab818-b716-4938-be8a-563012d1972e}, !- Outside Boundary Condition Object
  NoSun,                                  !- Sun Exposure
  NoWind,                                 !- Wind Exposure
  ,                                       !- View Factor to Ground
  ,                                       !- Number of Vertices
  22.3981342080094, 0, 2.4384,            !- X,Y,Z Vertex 1 {m}
  22.3981342080094, 12.4434078933385, 2.4384, !- X,Y,Z Vertex 2 {m}
  0, 12.4434078933385, 2.4384,            !- X,Y,Z Vertex 3 {m}
  0, 0, 2.4384;                           !- X,Y,Z Vertex 4 {m}

OS:SpaceType,
  {4d465cc4-cd8a-4248-9432-840c4e89c692}, !- Handle
  Space Type 1,                           !- Name
  ,                                       !- Default Construction Set Name
  ,                                       !- Default Schedule Set Name
  ,                                       !- Group Rendering Name
  ,                                       !- Design Specification Outdoor Air Object Name
  ,                                       !- Standards Template
  ,                                       !- Standards Building Type
  living;                                 !- Standards Space Type

OS:Surface,
  {075ab818-b716-4938-be8a-563012d1972e}, !- Handle
  Surface 7,                              !- Name
  Floor,                                  !- Surface Type
  {b2f03828-4ecf-47e2-8d4f-dc186b4973c8}, !- Construction Name
  {6ecec083-c412-4d3f-a694-ef011388cfe5}, !- Space Name
  Surface,                                !- Outside Boundary Condition
  {452ffcd9-1aa6-448c-b69f-5153bdba2811}, !- Outside Boundary Condition Object
  NoSun,                                  !- Sun Exposure
  NoWind,                                 !- Wind Exposure
  ,                                       !- View Factor to Ground
  ,                                       !- Number of Vertices
  0, 12.4434078933385, 0,                 !- X,Y,Z Vertex 1 {m}
  22.3981342080094, 12.4434078933385, 0,  !- X,Y,Z Vertex 2 {m}
  22.3981342080094, 0, 0,                 !- X,Y,Z Vertex 3 {m}
  0, 0, 0;                                !- X,Y,Z Vertex 4 {m}

OS:Surface,
  {51813b54-45ae-4729-834c-47790b6b7335}, !- Handle
  Surface 8,                              !- Name
  RoofCeiling,                            !- Surface Type
  {19463a7b-2d8a-4cef-9e5f-c9fdaf534f55}, !- Construction Name
  {6ecec083-c412-4d3f-a694-ef011388cfe5}, !- Space Name
  Outdoors,                               !- Outside Boundary Condition
  ,                                       !- Outside Boundary Condition Object
  SunExposed,                             !- Sun Exposure
  WindExposed,                            !- Wind Exposure
  ,                                       !- View Factor to Ground
  ,                                       !- Number of Vertices
  22.3981342080094, 6.22170394666927, 3.41565197333464, !- X,Y,Z Vertex 1 {m}
  0, 6.22170394666927, 3.41565197333464,  !- X,Y,Z Vertex 2 {m}
  0, 0, 0.304800000000001,                !- X,Y,Z Vertex 3 {m}
  22.3981342080094, 0, 0.304800000000001; !- X,Y,Z Vertex 4 {m}

OS:Surface,
  {3432e3b7-0696-4f91-b890-7b154e0bf188}, !- Handle
  Surface 9,                              !- Name
  RoofCeiling,                            !- Surface Type
  {19463a7b-2d8a-4cef-9e5f-c9fdaf534f55}, !- Construction Name
  {6ecec083-c412-4d3f-a694-ef011388cfe5}, !- Space Name
  Outdoors,                               !- Outside Boundary Condition
  ,                                       !- Outside Boundary Condition Object
  SunExposed,                             !- Sun Exposure
  WindExposed,                            !- Wind Exposure
  ,                                       !- View Factor to Ground
  ,                                       !- Number of Vertices
  0, 6.22170394666927, 3.41565197333464,  !- X,Y,Z Vertex 1 {m}
  22.3981342080094, 6.22170394666927, 3.41565197333464, !- X,Y,Z Vertex 2 {m}
  22.3981342080094, 12.4434078933385, 0.304800000000002, !- X,Y,Z Vertex 3 {m}
  0, 12.4434078933385, 0.304800000000002; !- X,Y,Z Vertex 4 {m}

OS:Surface,
  {bd1029da-7dbc-4b32-8b7b-b5bd5f918261}, !- Handle
  Surface 10,                             !- Name
  Wall,                                   !- Surface Type
  {0b2861da-5bd7-496f-a7cb-ddd7722be4f9}, !- Construction Name
  {6ecec083-c412-4d3f-a694-ef011388cfe5}, !- Space Name
  Outdoors,                               !- Outside Boundary Condition