!- NOTE: Auto-generated from /test/osw_files/SFD_2story_S_UA_GRG_ASHP1_FuelTanklessWH.osw

OS:Version,
  {4b23888d-db15-4811-abd6-69ebd75b426f}, !- Handle
  2.7.0;                                  !- Version Identifier

OS:SimulationControl,
  {ea791549-55cd-4d98-80df-d6cf3539833d}, !- Handle
  ,                                       !- Do Zone Sizing Calculation
  ,                                       !- Do System Sizing Calculation
  ,                                       !- Do Plant Sizing Calculation
  No;                                     !- Run Simulation for Sizing Periods

OS:Timestep,
  {6d2b5b67-d708-4982-9a53-39b61a7135c4}, !- Handle
  6;                                      !- Number of Timesteps per Hour

OS:ShadowCalculation,
  {4af2fafc-fa85-49a9-a70a-c8c1f6144a3c}, !- Handle
  20,                                     !- Calculation Frequency
  200;                                    !- Maximum Figures in Shadow Overlap Calculations

OS:SurfaceConvectionAlgorithm:Outside,
  {cacca93d-51b3-4d58-995c-6a01618ee232}, !- Handle
  DOE-2;                                  !- Algorithm

OS:SurfaceConvectionAlgorithm:Inside,
  {14d6b907-a094-4956-bb4d-1dacf887d3b1}, !- Handle
  TARP;                                   !- Algorithm

OS:ZoneCapacitanceMultiplier:ResearchSpecial,
  {d5ca2f0d-42c0-4cc9-97c1-da289f7510bc}, !- Handle
  ,                                       !- Temperature Capacity Multiplier
  15,                                     !- Humidity Capacity Multiplier
  ;                                       !- Carbon Dioxide Capacity Multiplier

OS:RunPeriod,
  {4cc7f353-2769-45ab-89f1-df997cff989f}, !- Handle
  Run Period 1,                           !- Name
  1,                                      !- Begin Month
  1,                                      !- Begin Day of Month
  12,                                     !- End Month
  31,                                     !- End Day of Month
  ,                                       !- Use Weather File Holidays and Special Days
  ,                                       !- Use Weather File Daylight Saving Period
  ,                                       !- Apply Weekend Holiday Rule
  ,                                       !- Use Weather File Rain Indicators
  ,                                       !- Use Weather File Snow Indicators
  ;                                       !- Number of Times Runperiod to be Repeated

OS:WeatherFile,
  {16390bbb-126b-460d-a7a9-cb26d08bd031}, !- Handle
  Denver Intl Ap,                         !- City
  CO,                                     !- State Province Region
  USA,                                    !- Country
  TMY3,                                   !- Data Source
  725650,                                 !- WMO Number
  39.83,                                  !- Latitude {deg}
  -104.65,                                !- Longitude {deg}
  -7,                                     !- Time Zone {hr}
  1650,                                   !- Elevation {m}
  file:../tests/USA_CO_Denver_Intl_AP_725650_TMY3.epw, !- Url
  E23378AA;                               !- Checksum

OS:AdditionalProperties,
  {b143637f-8f87-4696-9186-65bcfaf8a01e}, !- Handle
  {16390bbb-126b-460d-a7a9-cb26d08bd031}, !- Object Name
  EPWHeaderCity,                          !- Feature Name 1
  String,                                 !- Feature Data Type 1
  Denver Intl Ap,                         !- Feature Value 1
  EPWHeaderState,                         !- Feature Name 2
  String,                                 !- Feature Data Type 2
  CO,                                     !- Feature Value 2
  EPWHeaderCountry,                       !- Feature Name 3
  String,                                 !- Feature Data Type 3
  USA,                                    !- Feature Value 3
  EPWHeaderDataSource,                    !- Feature Name 4
  String,                                 !- Feature Data Type 4
  TMY3,                                   !- Feature Value 4
  EPWHeaderStation,                       !- Feature Name 5
  String,                                 !- Feature Data Type 5
  725650,                                 !- Feature Value 5
  EPWHeaderLatitude,                      !- Feature Name 6
  Double,                                 !- Feature Data Type 6
  39.829999999999998,                     !- Feature Value 6
  EPWHeaderLongitude,                     !- Feature Name 7
  Double,                                 !- Feature Data Type 7
  -104.65000000000001,                    !- Feature Value 7
  EPWHeaderTimezone,                      !- Feature Name 8
  Double,                                 !- Feature Data Type 8
  -7,                                     !- Feature Value 8
  EPWHeaderAltitude,                      !- Feature Name 9
  Double,                                 !- Feature Data Type 9
  5413.3858267716532,                     !- Feature Value 9
  EPWHeaderLocalPressure,                 !- Feature Name 10
  Double,                                 !- Feature Data Type 10
  0.81937567683596546,                    !- Feature Value 10
  EPWHeaderRecordsPerHour,                !- Feature Name 11
  Double,                                 !- Feature Data Type 11
  1,                                      !- Feature Value 11
  EPWDataAnnualAvgDrybulb,                !- Feature Name 12
  Double,                                 !- Feature Data Type 12
  51.575616438356228,                     !- Feature Value 12
  EPWDataAnnualMinDrybulb,                !- Feature Name 13
  Double,                                 !- Feature Data Type 13
  -2.9200000000000017,                    !- Feature Value 13
  EPWDataAnnualMaxDrybulb,                !- Feature Name 14
  Double,                                 !- Feature Data Type 14
  104,                                    !- Feature Value 14
  EPWDataCDD50F,                          !- Feature Name 15
  Double,                                 !- Feature Data Type 15
  3072.2925000000005,                     !- Feature Value 15
  EPWDataCDD65F,                          !- Feature Name 16
  Double,                                 !- Feature Data Type 16
  883.62000000000035,                     !- Feature Value 16
  EPWDataHDD50F,                          !- Feature Name 17
  Double,                                 !- Feature Data Type 17
  2497.1925000000001,                     !- Feature Value 17
  EPWDataHDD65F,                          !- Feature Name 18
  Double,                                 !- Feature Data Type 18
  5783.5200000000013,                     !- Feature Value 18
  EPWDataAnnualAvgWindspeed,              !- Feature Name 19
  Double,                                 !- Feature Data Type 19
  3.9165296803649667,                     !- Feature Value 19
  EPWDataMonthlyAvgDrybulbs,              !- Feature Name 20
  String,                                 !- Feature Data Type 20
  33.4191935483871&#4431.90142857142857&#4443.02620967741937&#4442.48624999999999&#4459.877741935483854&#4473.57574999999997&#4472.07975806451608&#4472.70008064516134&#4466.49200000000006&#4450.079112903225806&#4437.218250000000005&#4434.582177419354835, !- Feature Value 20
  EPWDataGroundMonthlyTemps,              !- Feature Name 21
  String,                                 !- Feature Data Type 21
  44.08306285945173&#4440.89570904991865&#4440.64045432632048&#4442.153016571250646&#4448.225111118704206&#4454.268919273837525&#4459.508577937551024&#4462.82777283423508&#4463.10975667174995&#4460.41014950381947&#4455.304105212311526&#4449.445696474514364, !- Feature Value 21
  EPWDataWSF,                             !- Feature Name 22
  Double,                                 !- Feature Data Type 22
  0.58999999999999997,                    !- Feature Value 22
  EPWDataMonthlyAvgDailyHighDrybulbs,     !- Feature Name 23
  String,                                 !- Feature Data Type 23
  47.41032258064516&#4446.58642857142857&#4455.15032258064517&#4453.708&#4472.80193548387098&#4488.67600000000002&#4486.1858064516129&#4485.87225806451613&#4482.082&#4463.18064516129033&#4448.73400000000001&#4448.87935483870968, !- Feature Value 23
  EPWDataMonthlyAvgDailyLowDrybulbs,      !- Feature Name 24
  String,                                 !- Feature Data Type 24
  19.347741935483874&#4419.856428571428573&#4430.316129032258065&#4431.112&#4447.41612903225806&#4457.901999999999994&#4459.063870967741934&#4460.956774193548384&#4452.352000000000004&#4438.41612903225806&#4427.002000000000002&#4423.02903225806451, !- Feature Value 24
  EPWDesignHeatingDrybulb,                !- Feature Name 25
  Double,                                 !- Feature Data Type 25
  6.8000000000000007,                     !- Feature Value 25
  EPWDesignHeatingWindspeed,              !- Feature Name 26
  Double,                                 !- Feature Data Type 26
  12,                                     !- Feature Value 26
  EPWDesignCoolingDrybulb,                !- Feature Name 27
  Double,                                 !- Feature Data Type 27
  91.760000000000005,                     !- Feature Value 27
  EPWDesignCoolingWetbulb,                !- Feature Name 28
  Double,                                 !- Feature Data Type 28
  60.079999999999998,                     !- Feature Value 28
  EPWDesignCoolingHumidityRatio,          !- Feature Name 29
  Double,                                 !- Feature Data Type 29
  0.006050392196571398,                   !- Feature Value 29
  EPWDesignCoolingWindspeed,              !- Feature Name 30
  Double,                                 !- Feature Data Type 30
  4.2000000000000002,                     !- Feature Value 30
  EPWDesignDailyTemperatureRange,         !- Feature Name 31
  Double,                                 !- Feature Data Type 31
  27.359999999999999,                     !- Feature Value 31
  EPWDesignDehumidDrybulb,                !- Feature Name 32
  Double,                                 !- Feature Data Type 32
  67.280000000000001,                     !- Feature Value 32
  EPWDesignDehumidHumidityRatio,          !- Feature Name 33
  Double,                                 !- Feature Data Type 33
  0.012295426899271008,                   !- Feature Value 33
  EPWDesignCoolingDirectNormal,           !- Feature Name 34
  Double,                                 !- Feature Data Type 34
  985,                                    !- Feature Value 34
  EPWDesignCoolingDiffuseHorizontal,      !- Feature Name 35
  Double,                                 !- Feature Data Type 35
  84;                                     !- Feature Value 35

OS:YearDescription,
  {9e2d046b-7316-40bd-b592-fd05655996c6}, !- Handle
  ,                                       !- Calendar Year
  Monday;                                 !- Day of Week for Start Day

OS:Site,
  {5fd65846-28b5-420b-b9de-861ae6c9d541}, !- Handle
  Denver Intl Ap_CO_USA,                  !- Name
  39.83,                                  !- Latitude {deg}
  -104.65,                                !- Longitude {deg}
  -7,                                     !- Time Zone {hr}
  1650,                                   !- Elevation {m}
  Suburbs;                                !- Terrain

OS:ClimateZones,
  {25772a04-ab24-431d-ba79-6e8a052a5249}, !- Handle
  ,                                       !- Active Institution
  ,                                       !- Active Year
  ,                                       !- Climate Zone Institution Name 1
  ,                                       !- Climate Zone Document Name 1
  ,                                       !- Climate Zone Document Year 1
  ,                                       !- Climate Zone Value 1
  Building America,                       !- Climate Zone Institution Name 2
  ,                                       !- Climate Zone Document Name 2
  0,                                      !- Climate Zone Document Year 2
  Cold;                                   !- Climate Zone Value 2

OS:Site:WaterMainsTemperature,
  {32580301-0b6b-4220-bf1b-fa7833cf027e}, !- Handle
  Correlation,                            !- Calculation Method
  ,                                       !- Temperature Schedule Name
  10.8753424657535,                       !- Annual Average Outdoor Air Temperature {C}
  23.1524007936508;                       !- Maximum Difference In Monthly Average Outdoor Air Temperatures {deltaC}

OS:RunPeriodControl:DaylightSavingTime,
  {5553fb32-9f19-4be0-b7be-4065eb2057e7}, !- Handle
  4/7,                                    !- Start Date
  10/26;                                  !- End Date

OS:Site:GroundTemperature:Deep,
  {2e114690-3d5a-4a9a-ab08-658498aecdca}, !- Handle
  10.8753424657535,                       !- January Deep Ground Temperature {C}
  10.8753424657535,                       !- February Deep Ground Temperature {C}
  10.8753424657535,                       !- March Deep Ground Temperature {C}
  10.8753424657535,                       !- April Deep Ground Temperature {C}
  10.8753424657535,                       !- May Deep Ground Temperature {C}
  10.8753424657535,                       !- June Deep Ground Temperature {C}
  10.8753424657535,                       !- July Deep Ground Temperature {C}
  10.8753424657535,                       !- August Deep Ground Temperature {C}
  10.8753424657535,                       !- September Deep Ground Temperature {C}
  10.8753424657535,                       !- October Deep Ground Temperature {C}
  10.8753424657535,                       !- November Deep Ground Temperature {C}
  10.8753424657535;                       !- December Deep Ground Temperature {C}

OS:ThermalZone,
  {971b6269-fe2d-4602-8962-7c1943223be6}, !- Handle
  living zone,                            !- Name
  ,                                       !- Multiplier
  ,                                       !- Ceiling Height {m}
  ,                                       !- Volume {m3}
  ,                                       !- Floor Area {m2}
  ,                                       !- Zone Inside Convection Algorithm
  ,                                       !- Zone Outside Convection Algorithm
  ,                                       !- Zone Conditioning Equipment List Name
  {0b41c82e-6e67-4795-be11-f9afc212683f}, !- Zone Air Inlet Port List
  {00f385e0-abc1-4852-8936-725b59ea53cf}, !- Zone Air Exhaust Port List
  {de4c3bf6-1e91-4b8b-9cd9-30b5129226ce}, !- Zone Air Node Name
  {15dc950d-204c-4b8a-af8d-a0f0263ce6d3}, !- Zone Return Air Port List
  ,                                       !- Primary Daylighting Control Name
  ,                                       !- Fraction of Zone Controlled by Primary Daylighting Control
  ,                                       !- Secondary Daylighting Control Name
  ,                                       !- Fraction of Zone Controlled by Secondary Daylighting Control
  ,                                       !- Illuminance Map Name
  ,                                       !- Group Rendering Name
  {b6f316c2-68b5-45dc-8f13-2e017312902e}, !- Thermostat Name
  No;                                     !- Use Ideal Air Loads

OS:Node,
  {a187c80c-5a34-43fd-8816-514f048f4bba}, !- Handle
  Node 1,                                 !- Name
  {de4c3bf6-1e91-4b8b-9cd9-30b5129226ce}, !- Inlet Port
  ;                                       !- Outlet Port

OS:Connection,
  {de4c3bf6-1e91-4b8b-9cd9-30b5129226ce}, !- Handle
  {86c05a2c-f9df-4c26-a67d-41ff0e5c062a}, !- Name
  {971b6269-fe2d-4602-8962-7c1943223be6}, !- Source Object
  11,                                     !- Outlet Port
  {a187c80c-5a34-43fd-8816-514f048f4bba}, !- Target Object
  2;                                      !- Inlet Port

OS:PortList,
  {0b41c82e-6e67-4795-be11-f9afc212683f}, !- Handle
  {27e122cd-ec45-41ac-a482-d4cc33607e75}, !- Name
  {971b6269-fe2d-4602-8962-7c1943223be6}, !- HVAC Component
  {57d962ce-34cd-4cef-928e-5a7c39af8b18}; !- Port 1

OS:PortList,
  {00f385e0-abc1-4852-8936-725b59ea53cf}, !- Handle
  {e0739dcd-26f5-4a8f-848b-7a7abfdc8759}, !- Name
  {971b6269-fe2d-4602-8962-7c1943223be6}; !- HVAC Component

OS:PortList,
  {15dc950d-204c-4b8a-af8d-a0f0263ce6d3}, !- Handle
  {2fe19883-5336-41fc-a068-dce80005ad5b}, !- Name
  {971b6269-fe2d-4602-8962-7c1943223be6}, !- HVAC Component
  {626de536-2971-469f-a13f-ce05e945b7fe}; !- Port 1

OS:Sizing:Zone,
  {63db7015-5dd5-4e01-85da-9bfd6fccdbff}, !- Handle
  {971b6269-fe2d-4602-8962-7c1943223be6}, !- Zone or ZoneList Name
  SupplyAirTemperature,                   !- Zone Cooling Design Supply Air Temperature Input Method
  14,                                     !- Zone Cooling Design Supply Air Temperature {C}
  11.11,                                  !- Zone Cooling Design Supply Air Temperature Difference {deltaC}
  SupplyAirTemperature,                   !- Zone Heating Design Supply Air Temperature Input Method
  40,                                     !- Zone Heating Design Supply Air Temperature {C}
  11.11,                                  !- Zone Heating Design Supply Air Temperature Difference {deltaC}
  0.0085,                                 !- Zone Cooling Design Supply Air Humidity Ratio {kg-H2O/kg-air}
  0.008,                                  !- Zone Heating Design Supply Air Humidity Ratio {kg-H2O/kg-air}
  ,                                       !- Zone Heating Sizing Factor
  ,                                       !- Zone Cooling Sizing Factor
  DesignDay,                              !- Cooling Design Air Flow Method
  ,                                       !- Cooling Design Air Flow Rate {m3/s}
  ,                                       !- Cooling Minimum Air Flow per Zone Floor Area {m3/s-m2}
  ,                                       !- Cooling Minimum Air Flow {m3/s}
  ,                                       !- Cooling Minimum Air Flow Fraction
  DesignDay,                              !- Heating Design Air Flow Method
  ,                                       !- Heating Design Air Flow Rate {m3/s}
  ,                                       !- Heating Maximum Air Flow per Zone Floor Area {m3/s-m2}
  ,                                       !- Heating Maximum Air Flow {m3/s}
  ,                                       !- Heating Maximum Air Flow Fraction
  ,                                       !- Design Zone Air Distribution Effectiveness in Cooling Mode
  ,                                       !- Design Zone Air Distribution Effectiveness in Heating Mode
  No,                                     !- Account for Dedicated Outdoor Air System
  NeutralSupplyAir,                       !- Dedicated Outdoor Air System Control Strategy
  autosize,                               !- Dedicated Outdoor Air Low Setpoint Temperature for Design {C}
  autosize;                               !- Dedicated Outdoor Air High Setpoint Temperature for Design {C}

OS:ZoneHVAC:EquipmentList,
  {5eda851e-7afe-4593-8a95-e91790533104}, !- Handle
  Zone HVAC Equipment List 1,             !- Name
  {971b6269-fe2d-4602-8962-7c1943223be6}, !- Thermal Zone
  ,                                       !- Load Distribution Scheme
  {4ff03980-3977-4e82-8409-21049f2ae6be}, !- Zone Equipment 1
  1,                                      !- Zone Equipment Cooling Sequence 1
  1;                                      !- Zone Equipment Heating or No-Load Sequence 1

OS:ThermalZone,
  {7cdb63f5-1054-4ca5-9e9a-716f1d7519a4}, !- Handle
  garage zone,                            !- Name
  ,                                       !- Multiplier
  ,                                       !- Ceiling Height {m}
  ,                                       !- Volume {m3}
  ,                                       !- Floor Area {m2}
  ,                                       !- Zone Inside Convection Algorithm
  ,                                       !- Zone Outside Convection Algorithm
  ,                                       !- Zone Conditioning Equipment List Name
  {7a5fc565-fd2b-4056-bc7a-71cea45cc6e4}, !- Zone Air Inlet Port List
  {b87b34db-9b51-414c-ac92-5f7c42b909a1}, !- Zone Air Exhaust Port List
  {68c637fa-6fb9-4d57-9513-a43c10ee4bad}, !- Zone Air Node Name
  {1e011f5e-3c88-4e98-8211-e5fa22bc841a}, !- Zone Return Air Port List
  ,                                       !- Primary Daylighting Control Name
  ,                                       !- Fraction of Zone Controlled by Primary Daylighting Control
  ,                                       !- Secondary Daylighting Control Name
  ,                                       !- Fraction of Zone Controlled by Secondary Daylighting Control
  ,                                       !- Illuminance Map Name
  ,                                       !- Group Rendering Name
  ,                                       !- Thermostat Name
  No;                                     !- Use Ideal Air Loads

OS:Node,
  {15e58525-0e5b-444a-a4de-d7614b2d3119}, !- Handle
  Node 2,                                 !- Name
  {68c637fa-6fb9-4d57-9513-a43c10ee4bad}, !- Inlet Port
  ;                                       !- Outlet Port

OS:Connection,
  {68c637fa-6fb9-4d57-9513-a43c10ee4bad}, !- Handle
  {ad4ff94f-e5ce-41a8-840e-9a56f5c5a5b1}, !- Name
  {7cdb63f5-1054-4ca5-9e9a-716f1d7519a4}, !- Source Object
  11,                                     !- Outlet Port
  {15e58525-0e5b-444a-a4de-d7614b2d3119}, !- Target Object
  2;                                      !- Inlet Port

OS:PortList,
  {7a5fc565-fd2b-4056-bc7a-71cea45cc6e4}, !- Handle
  {cbca5a50-ad73-4ed5-9e80-e1cabdc717ba}, !- Name
  {7cdb63f5-1054-4ca5-9e9a-716f1d7519a4}; !- HVAC Component

OS:PortList,
  {b87b34db-9b51-414c-ac92-5f7c42b909a1}, !- Handle
  {55419311-1dd1-4f21-8fca-0c54d8504be1}, !- Name
  {7cdb63f5-1054-4ca5-9e9a-716f1d7519a4}; !- HVAC Component

OS:PortList,
  {1e011f5e-3c88-4e98-8211-e5fa22bc841a}, !- Handle
  {c2e5cf46-9b59-4500-b809-36544a228452}, !- Name
  {7cdb63f5-1054-4ca5-9e9a-716f1d7519a4}; !- HVAC Component

OS:Sizing:Zone,
  {ba30effa-5e06-49e5-86ec-97820cece1e5}, !- Handle
  {7cdb63f5-1054-4ca5-9e9a-716f1d7519a4}, !- Zone or ZoneList Name
  SupplyAirTemperature,                   !- Zone Cooling Design Supply Air Temperature Input Method
  14,                                     !- Zone Cooling Design Supply Air Temperature {C}
  11.11,                                  !- Zone Cooling Design Supply Air Temperature Difference {deltaC}
  SupplyAirTemperature,                   !- Zone Heating Design Supply Air Temperature Input Method
  40,                                     !- Zone Heating Design Supply Air Temperature {C}
  11.11,                                  !- Zone Heating Design Supply Air Temperature Difference {deltaC}
  0.0085,                                 !- Zone Cooling Design Supply Air Humidity Ratio {kg-H2O/kg-air}
  0.008,                                  !- Zone Heating Design Supply Air Humidity Ratio {kg-H2O/kg-air}
  ,                                       !- Zone Heating Sizing Factor
  ,                                       !- Zone Cooling Sizing Factor
  DesignDay,                              !- Cooling Design Air Flow Method
  ,                                       !- Cooling Design Air Flow Rate {m3/s}
  ,                                       !- Cooling Minimum Air Flow per Zone Floor Area {m3/s-m2}
  ,                                       !- Cooling Minimum Air Flow {m3/s}
  ,                                       !- Cooling Minimum Air Flow Fraction
  DesignDay,                              !- Heating Design Air Flow Method
  ,                                       !- Heating Design Air Flow Rate {m3/s}
  ,                                       !- Heating Maximum Air Flow per Zone Floor Area {m3/s-m2}
  ,                                       !- Heating Maximum Air Flow {m3/s}
  ,                                       !- Heating Maximum Air Flow Fraction
  ,                                       !- Design Zone Air Distribution Effectiveness in Cooling Mode
  ,                                       !- Design Zone Air Distribution Effectiveness in Heating Mode
  No,                                     !- Account for Dedicated Outdoor Air System
  NeutralSupplyAir,                       !- Dedicated Outdoor Air System Control Strategy
  autosize,                               !- Dedicated Outdoor Air Low Setpoint Temperature for Design {C}
  autosize;                               !- Dedicated Outdoor Air High Setpoint Temperature for Design {C}

OS:ZoneHVAC:EquipmentList,
  {ec74f2d1-36b8-4fb7-b167-0d985bd5b19f}, !- Handle
  Zone HVAC Equipment List 2,             !- Name
  {7cdb63f5-1054-4ca5-9e9a-716f1d7519a4}; !- Thermal Zone

OS:Space,
  {321fd33b-50ef-49ea-8049-f4b05daf71df}, !- Handle
  garage space,                           !- Name
  {5f4a67f2-9f5a-4376-9eb2-e87175779597}, !- Space Type Name
  ,                                       !- Default Construction Set Name
  ,                                       !- Default Schedule Set Name
  -0,                                     !- Direction of Relative North {deg}
  0,                                      !- X Origin {m}
  0,                                      !- Y Origin {m}
  0,                                      !- Z Origin {m}
  ,                                       !- Building Story Name
  {7cdb63f5-1054-4ca5-9e9a-716f1d7519a4}; !- Thermal Zone Name

OS:Surface,
  {24ca5505-ee26-413d-a7f3-e8e7613cf74b}, !- Handle
  Surface 1,                              !- Name
  Floor,                                  !- Surface Type
  {1cc2f366-37c6-4aac-8e56-79017f8b98ab}, !- Construction Name
  {321fd33b-50ef-49ea-8049-f4b05daf71df}, !- Space Name
  Foundation,                             !- Outside Boundary Condition
  {3663261d-be82-4265-8f60-3d7fadee8f95}, !- Outside Boundary Condition Object
  NoSun,                                  !- Sun Exposure
  NoWind,                                 !- Wind Exposure
  ,                                       !- View Factor to Ground
  ,                                       !- Number of Vertices
  12.1802725844098, -3.6576, 0,           !- X,Y,Z Vertex 1 {m}
  12.1802725844098, 3.6576, 0,            !- X,Y,Z Vertex 2 {m}
  15.8378725844098, 3.6576, 0,            !- X,Y,Z Vertex 3 {m}
  15.8378725844098, -3.6576, 0;           !- X,Y,Z Vertex 4 {m}

OS:Surface,
  {54c56ae8-8a42-44bf-841b-dc1ffd22d36b}, !- Handle
  Surface 2,                              !- Name
  Wall,                                   !- Surface Type
  {e8ee58e7-45a9-4369-be4c-67457b3cc875}, !- Construction Name
  {321fd33b-50ef-49ea-8049-f4b05daf71df}, !- Space Name
  Surface,                                !- Outside Boundary Condition
  {4b0aa413-09e9-4c21-b547-57e550fa7122}, !- Outside Boundary Condition Object
  NoSun,                                  !- Sun Exposure
  NoWind,                                 !- Wind Exposure
  ,                                       !- View Factor to Ground
  ,                                       !- Number of Vertices
  12.1802725844098, 3.6576, 2.4384,       !- X,Y,Z Vertex 1 {m}
  12.1802725844098, 3.6576, 0,            !- X,Y,Z Vertex 2 {m}
  12.1802725844098, 0, 0,                 !- X,Y,Z Vertex 3 {m}
  12.1802725844098, 0, 2.4384;            !- X,Y,Z Vertex 4 {m}

OS:Surface,
  {daf5b2b7-43c8-48b1-a96e-ed3ddf5966f3}, !- Handle
  Surface 3,                              !- Name
  Wall,                                   !- Surface Type
  {e8ee58e7-45a9-4369-be4c-67457b3cc875}, !- Construction Name
  {321fd33b-50ef-49ea-8049-f4b05daf71df}, !- Space Name
  Surface,                                !- Outside Boundary Condition
  {1c35fdea-b18a-481f-9398-66776fb35024}, !- Outside Boundary Condition Object
  NoSun,                                  !- Sun Exposure
  NoWind,                                 !- Wind Exposure
  ,                                       !- View Factor to Ground
  ,                                       !- Number of Vertices
  15.8378725844098, 3.6576, 2.4384,       !- X,Y,Z Vertex 1 {m}
  15.8378725844098, 3.6576, 0,            !- X,Y,Z Vertex 2 {m}
  12.1802725844098, 3.6576, 0,            !- X,Y,Z Vertex 3 {m}
  12.1802725844098, 3.6576, 2.4384;       !- X,Y,Z Vertex 4 {m}

OS:Surface,
  {faa4fbbc-a8eb-4289-a1ff-6882ecb11c68}, !- Handle
  Surface 4,                              !- Name
  Wall,                                   !- Surface Type
  {fd3bed09-91de-4423-911d-9df64d0853f6}, !- Construction Name
  {321fd33b-50ef-49ea-8049-f4b05daf71df}, !- Space Name
  Outdoors,                               !- Outside Boundary Condition
  ,                                       !- Outside Boundary Condition Object
  SunExposed,                             !- Sun Exposure
  WindExposed,                            !- Wind Exposure
  ,                                       !- View Factor to Ground
  ,                                       !- Number of Vertices
  15.8378725844098, -3.6576, 2.4384,      !- X,Y,Z Vertex 1 {m}
  15.8378725844098, -3.6576, 0,           !- X,Y,Z Vertex 2 {m}
  15.8378725844098, 3.6576, 0,            !- X,Y,Z Vertex 3 {m}
  15.8378725844098, 3.6576, 2.4384;       !- X,Y,Z Vertex 4 {m}

OS:Surface,
  {95325c1a-e48d-45f7-b001-ec2c0933b312}, !- Handle
  Surface 5,                              !- Name
  Wall,                                   !- Surface Type
  {fd3bed09-91de-4423-911d-9df64d0853f6}, !- Construction Name
  {321fd33b-50ef-49ea-8049-f4b05daf71df}, !- Space Name
  Outdoors,                               !- Outside Boundary Condition
  ,                                       !- Outside Boundary Condition Object
  SunExposed,                             !- Sun Exposure
  WindExposed,                            !- Wind Exposure
  ,                                       !- View Factor to Ground
  ,                                       !- Number of Vertices