!- NOTE: Auto-generated from /test/osw_files/SFD_2story_FB_UA_GRG_AC1_ElecBaseboard_FuelTankWH.osw

OS:Version,
  {55f9f760-0875-4020-9818-6a8139615d5f}, !- Handle
  2.7.0;                                  !- Version Identifier

OS:SimulationControl,
  {d62acee9-0f88-4b73-a305-84a42e6ed176}, !- Handle
  ,                                       !- Do Zone Sizing Calculation
  ,                                       !- Do System Sizing Calculation
  ,                                       !- Do Plant Sizing Calculation
  No;                                     !- Run Simulation for Sizing Periods

OS:Timestep,
  {fbe32941-88fc-4d6a-b7c2-1b1cb40cf009}, !- Handle
  6;                                      !- Number of Timesteps per Hour

OS:ShadowCalculation,
  {eb950b3d-631b-4f1c-8e15-e15cd591e7b8}, !- Handle
  20,                                     !- Calculation Frequency
  200;                                    !- Maximum Figures in Shadow Overlap Calculations

OS:SurfaceConvectionAlgorithm:Outside,
  {751bfb9d-833c-482c-8a76-a58bcea6587a}, !- Handle
  DOE-2;                                  !- Algorithm

OS:SurfaceConvectionAlgorithm:Inside,
  {c94ee9ce-146e-4509-9035-de7d7ed1245e}, !- Handle
  TARP;                                   !- Algorithm

OS:ZoneCapacitanceMultiplier:ResearchSpecial,
  {8c109c6c-7463-42e2-a795-79625a751f62}, !- Handle
  ,                                       !- Temperature Capacity Multiplier
  15,                                     !- Humidity Capacity Multiplier
  ;                                       !- Carbon Dioxide Capacity Multiplier

OS:RunPeriod,
  {88b4a4d3-1a29-4c92-b17e-aea274f9b985}, !- Handle
  Run Period 1,                           !- Name
  1,                                      !- Begin Month
  1,                                      !- Begin Day of Month
  12,                                     !- End Month
  31,                                     !- End Day of Month
  ,                                       !- Use Weather File Holidays and Special Days
  ,                                       !- Use Weather File Daylight Saving Period
  ,                                       !- Apply Weekend Holiday Rule
  ,                                       !- Use Weather File Rain Indicators
  ,                                       !- Use Weather File Snow Indicators
  ;                                       !- Number of Times Runperiod to be Repeated

OS:WeatherFile,
  {4b50f162-817e-4f68-b95a-b68f352679e7}, !- Handle
  Denver Intl Ap,                         !- City
  CO,                                     !- State Province Region
  USA,                                    !- Country
  TMY3,                                   !- Data Source
  725650,                                 !- WMO Number
  39.83,                                  !- Latitude {deg}
  -104.65,                                !- Longitude {deg}
  -7,                                     !- Time Zone {hr}
  1650,                                   !- Elevation {m}
  file:../tests/USA_CO_Denver_Intl_AP_725650_TMY3.epw, !- Url
  E23378AA;                               !- Checksum

OS:AdditionalProperties,
  {0901bc99-f445-43b3-9fd2-70837767a7a7}, !- Handle
  {4b50f162-817e-4f68-b95a-b68f352679e7}, !- Object Name
  EPWHeaderCity,                          !- Feature Name 1
  String,                                 !- Feature Data Type 1
  Denver Intl Ap,                         !- Feature Value 1
  EPWHeaderState,                         !- Feature Name 2
  String,                                 !- Feature Data Type 2
  CO,                                     !- Feature Value 2
  EPWHeaderCountry,                       !- Feature Name 3
  String,                                 !- Feature Data Type 3
  USA,                                    !- Feature Value 3
  EPWHeaderDataSource,                    !- Feature Name 4
  String,                                 !- Feature Data Type 4
  TMY3,                                   !- Feature Value 4
  EPWHeaderStation,                       !- Feature Name 5
  String,                                 !- Feature Data Type 5
  725650,                                 !- Feature Value 5
  EPWHeaderLatitude,                      !- Feature Name 6
  Double,                                 !- Feature Data Type 6
  39.829999999999998,                     !- Feature Value 6
  EPWHeaderLongitude,                     !- Feature Name 7
  Double,                                 !- Feature Data Type 7
  -104.65000000000001,                    !- Feature Value 7
  EPWHeaderTimezone,                      !- Feature Name 8
  Double,                                 !- Feature Data Type 8
  -7,                                     !- Feature Value 8
  EPWHeaderAltitude,                      !- Feature Name 9
  Double,                                 !- Feature Data Type 9
  5413.3858267716532,                     !- Feature Value 9
  EPWHeaderLocalPressure,                 !- Feature Name 10
  Double,                                 !- Feature Data Type 10
  0.81937567683596546,                    !- Feature Value 10
  EPWHeaderRecordsPerHour,                !- Feature Name 11
  Double,                                 !- Feature Data Type 11
  1,                                      !- Feature Value 11
  EPWDataAnnualAvgDrybulb,                !- Feature Name 12
  Double,                                 !- Feature Data Type 12
  51.575616438356228,                     !- Feature Value 12
  EPWDataAnnualMinDrybulb,                !- Feature Name 13
  Double,                                 !- Feature Data Type 13
  -2.9200000000000017,                    !- Feature Value 13
  EPWDataAnnualMaxDrybulb,                !- Feature Name 14
  Double,                                 !- Feature Data Type 14
  104,                                    !- Feature Value 14
  EPWDataCDD50F,                          !- Feature Name 15
  Double,                                 !- Feature Data Type 15
  3072.2925000000005,                     !- Feature Value 15
  EPWDataCDD65F,                          !- Feature Name 16
  Double,                                 !- Feature Data Type 16
  883.62000000000035,                     !- Feature Value 16
  EPWDataHDD50F,                          !- Feature Name 17
  Double,                                 !- Feature Data Type 17
  2497.1925000000001,                     !- Feature Value 17
  EPWDataHDD65F,                          !- Feature Name 18
  Double,                                 !- Feature Data Type 18
  5783.5200000000013,                     !- Feature Value 18
  EPWDataAnnualAvgWindspeed,              !- Feature Name 19
  Double,                                 !- Feature Data Type 19
  3.9165296803649667,                     !- Feature Value 19
  EPWDataMonthlyAvgDrybulbs,              !- Feature Name 20
  String,                                 !- Feature Data Type 20
  33.4191935483871&#4431.90142857142857&#4443.02620967741937&#4442.48624999999999&#4459.877741935483854&#4473.57574999999997&#4472.07975806451608&#4472.70008064516134&#4466.49200000000006&#4450.079112903225806&#4437.218250000000005&#4434.582177419354835, !- Feature Value 20
  EPWDataGroundMonthlyTemps,              !- Feature Name 21
  String,                                 !- Feature Data Type 21
  44.08306285945173&#4440.89570904991865&#4440.64045432632048&#4442.153016571250646&#4448.225111118704206&#4454.268919273837525&#4459.508577937551024&#4462.82777283423508&#4463.10975667174995&#4460.41014950381947&#4455.304105212311526&#4449.445696474514364, !- Feature Value 21
  EPWDataWSF,                             !- Feature Name 22
  Double,                                 !- Feature Data Type 22
  0.58999999999999997,                    !- Feature Value 22
  EPWDataMonthlyAvgDailyHighDrybulbs,     !- Feature Name 23
  String,                                 !- Feature Data Type 23
  47.41032258064516&#4446.58642857142857&#4455.15032258064517&#4453.708&#4472.80193548387098&#4488.67600000000002&#4486.1858064516129&#4485.87225806451613&#4482.082&#4463.18064516129033&#4448.73400000000001&#4448.87935483870968, !- Feature Value 23
  EPWDataMonthlyAvgDailyLowDrybulbs,      !- Feature Name 24
  String,                                 !- Feature Data Type 24
  19.347741935483874&#4419.856428571428573&#4430.316129032258065&#4431.112&#4447.41612903225806&#4457.901999999999994&#4459.063870967741934&#4460.956774193548384&#4452.352000000000004&#4438.41612903225806&#4427.002000000000002&#4423.02903225806451, !- Feature Value 24
  EPWDesignHeatingDrybulb,                !- Feature Name 25
  Double,                                 !- Feature Data Type 25
  6.8000000000000007,                     !- Feature Value 25
  EPWDesignHeatingWindspeed,              !- Feature Name 26
  Double,                                 !- Feature Data Type 26
  12,                                     !- Feature Value 26
  EPWDesignCoolingDrybulb,                !- Feature Name 27
  Double,                                 !- Feature Data Type 27
  91.760000000000005,                     !- Feature Value 27
  EPWDesignCoolingWetbulb,                !- Feature Name 28
  Double,                                 !- Feature Data Type 28
  60.079999999999998,                     !- Feature Value 28
  EPWDesignCoolingHumidityRatio,          !- Feature Name 29
  Double,                                 !- Feature Data Type 29
  0.006050392196571398,                   !- Feature Value 29
  EPWDesignCoolingWindspeed,              !- Feature Name 30
  Double,                                 !- Feature Data Type 30
  4.2000000000000002,                     !- Feature Value 30
  EPWDesignDailyTemperatureRange,         !- Feature Name 31
  Double,                                 !- Feature Data Type 31
  27.359999999999999,                     !- Feature Value 31
  EPWDesignDehumidDrybulb,                !- Feature Name 32
  Double,                                 !- Feature Data Type 32
  67.280000000000001,                     !- Feature Value 32
  EPWDesignDehumidHumidityRatio,          !- Feature Name 33
  Double,                                 !- Feature Data Type 33
  0.012295426899271008,                   !- Feature Value 33
  EPWDesignCoolingDirectNormal,           !- Feature Name 34
  Double,                                 !- Feature Data Type 34
  985,                                    !- Feature Value 34
  EPWDesignCoolingDiffuseHorizontal,      !- Feature Name 35
  Double,                                 !- Feature Data Type 35
  84;                                     !- Feature Value 35

OS:YearDescription,
  {63a63515-a047-47ec-ae14-71723df67db9}, !- Handle
  ,                                       !- Calendar Year
  Monday;                                 !- Day of Week for Start Day

OS:Site,
  {3727131c-d20f-4847-b898-3ce43cabe1d1}, !- Handle
  Denver Intl Ap_CO_USA,                  !- Name
  39.83,                                  !- Latitude {deg}
  -104.65,                                !- Longitude {deg}
  -7,                                     !- Time Zone {hr}
  1650,                                   !- Elevation {m}
  Suburbs;                                !- Terrain

OS:ClimateZones,
  {7343fed8-f510-47b2-9f41-c5377f6c3269}, !- Handle
  ,                                       !- Active Institution
  ,                                       !- Active Year
  ,                                       !- Climate Zone Institution Name 1
  ,                                       !- Climate Zone Document Name 1
  ,                                       !- Climate Zone Document Year 1
  ,                                       !- Climate Zone Value 1
  Building America,                       !- Climate Zone Institution Name 2
  ,                                       !- Climate Zone Document Name 2
  0,                                      !- Climate Zone Document Year 2
  Cold;                                   !- Climate Zone Value 2

OS:Site:WaterMainsTemperature,
  {de038562-8430-4013-b100-c879d1c201b4}, !- Handle
  Correlation,                            !- Calculation Method
  ,                                       !- Temperature Schedule Name
  10.8753424657535,                       !- Annual Average Outdoor Air Temperature {C}
  23.1524007936508;                       !- Maximum Difference In Monthly Average Outdoor Air Temperatures {deltaC}

OS:RunPeriodControl:DaylightSavingTime,
  {3afa71fd-2fc3-45d3-88e8-0ad0cd0a14dd}, !- Handle
  4/7,                                    !- Start Date
  10/26;                                  !- End Date

OS:Site:GroundTemperature:Deep,
  {817bc567-3dd3-4842-a505-5e71ad5844e6}, !- Handle
  10.8753424657535,                       !- January Deep Ground Temperature {C}
  10.8753424657535,                       !- February Deep Ground Temperature {C}
  10.8753424657535,                       !- March Deep Ground Temperature {C}
  10.8753424657535,                       !- April Deep Ground Temperature {C}
  10.8753424657535,                       !- May Deep Ground Temperature {C}
  10.8753424657535,                       !- June Deep Ground Temperature {C}
  10.8753424657535,                       !- July Deep Ground Temperature {C}
  10.8753424657535,                       !- August Deep Ground Temperature {C}
  10.8753424657535,                       !- September Deep Ground Temperature {C}
  10.8753424657535,                       !- October Deep Ground Temperature {C}
  10.8753424657535,                       !- November Deep Ground Temperature {C}
  10.8753424657535;                       !- December Deep Ground Temperature {C}

OS:ThermalZone,
  {a969226d-4ad7-49fa-b016-7e8057a5bd9c}, !- Handle
  living zone,                            !- Name
  ,                                       !- Multiplier
  ,                                       !- Ceiling Height {m}
  ,                                       !- Volume {m3}
  ,                                       !- Floor Area {m2}
  ,                                       !- Zone Inside Convection Algorithm
  ,                                       !- Zone Outside Convection Algorithm
  ,                                       !- Zone Conditioning Equipment List Name
  {812fdcaf-ca90-4002-85e2-17bf13d8a448}, !- Zone Air Inlet Port List
  {08916f89-a5bd-4398-9afa-3c2d01957bda}, !- Zone Air Exhaust Port List
  {e734ab1c-1b99-4307-8e40-a304e284712d}, !- Zone Air Node Name
  {7b49adf6-6a90-4b93-ac85-a504d2600705}, !- Zone Return Air Port List
  ,                                       !- Primary Daylighting Control Name
  ,                                       !- Fraction of Zone Controlled by Primary Daylighting Control
  ,                                       !- Secondary Daylighting Control Name
  ,                                       !- Fraction of Zone Controlled by Secondary Daylighting Control
  ,                                       !- Illuminance Map Name
  ,                                       !- Group Rendering Name
  {3573f8f6-715d-46e4-b2a4-dfd7d8677be8}, !- Thermostat Name
  No;                                     !- Use Ideal Air Loads

OS:Node,
  {fe884f7c-5e5f-4b9f-b8b1-b4b98bc14236}, !- Handle
  Node 1,                                 !- Name
  {e734ab1c-1b99-4307-8e40-a304e284712d}, !- Inlet Port
  ;                                       !- Outlet Port

OS:Connection,
  {e734ab1c-1b99-4307-8e40-a304e284712d}, !- Handle
  {4b0fbb0d-a0e2-465f-a75c-09d6a72b30cc}, !- Name
  {a969226d-4ad7-49fa-b016-7e8057a5bd9c}, !- Source Object
  11,                                     !- Outlet Port
  {fe884f7c-5e5f-4b9f-b8b1-b4b98bc14236}, !- Target Object
  2;                                      !- Inlet Port

OS:PortList,
  {812fdcaf-ca90-4002-85e2-17bf13d8a448}, !- Handle
  {9bed655a-6147-48a9-9a28-580a3c4fbe73}, !- Name
  {a969226d-4ad7-49fa-b016-7e8057a5bd9c}, !- HVAC Component
  {be5257c5-4427-45a1-899d-02842585bdc6}; !- Port 1

OS:PortList,
  {08916f89-a5bd-4398-9afa-3c2d01957bda}, !- Handle
  {269899b7-88cb-4966-b304-31d6e58c5fdd}, !- Name
  {a969226d-4ad7-49fa-b016-7e8057a5bd9c}; !- HVAC Component

OS:PortList,
  {7b49adf6-6a90-4b93-ac85-a504d2600705}, !- Handle
  {2d3453ae-81e9-4023-b07e-8bb9ea22926d}, !- Name
  {a969226d-4ad7-49fa-b016-7e8057a5bd9c}, !- HVAC Component
  {94a14d70-e63e-41ea-8f60-355041d23e99}; !- Port 1

OS:Sizing:Zone,
  {7e1fb0ad-7d3e-4acc-ab29-65a287b07135}, !- Handle
  {a969226d-4ad7-49fa-b016-7e8057a5bd9c}, !- Zone or ZoneList Name
  SupplyAirTemperature,                   !- Zone Cooling Design Supply Air Temperature Input Method
  14,                                     !- Zone Cooling Design Supply Air Temperature {C}
  11.11,                                  !- Zone Cooling Design Supply Air Temperature Difference {deltaC}
  SupplyAirTemperature,                   !- Zone Heating Design Supply Air Temperature Input Method
  40,                                     !- Zone Heating Design Supply Air Temperature {C}
  11.11,                                  !- Zone Heating Design Supply Air Temperature Difference {deltaC}
  0.0085,                                 !- Zone Cooling Design Supply Air Humidity Ratio {kg-H2O/kg-air}
  0.008,                                  !- Zone Heating Design Supply Air Humidity Ratio {kg-H2O/kg-air}
  ,                                       !- Zone Heating Sizing Factor
  ,                                       !- Zone Cooling Sizing Factor
  DesignDay,                              !- Cooling Design Air Flow Method
  ,                                       !- Cooling Design Air Flow Rate {m3/s}
  ,                                       !- Cooling Minimum Air Flow per Zone Floor Area {m3/s-m2}
  ,                                       !- Cooling Minimum Air Flow {m3/s}
  ,                                       !- Cooling Minimum Air Flow Fraction
  DesignDay,                              !- Heating Design Air Flow Method
  ,                                       !- Heating Design Air Flow Rate {m3/s}
  ,                                       !- Heating Maximum Air Flow per Zone Floor Area {m3/s-m2}
  ,                                       !- Heating Maximum Air Flow {m3/s}
  ,                                       !- Heating Maximum Air Flow Fraction
  ,                                       !- Design Zone Air Distribution Effectiveness in Cooling Mode
  ,                                       !- Design Zone Air Distribution Effectiveness in Heating Mode
  No,                                     !- Account for Dedicated Outdoor Air System
  NeutralSupplyAir,                       !- Dedicated Outdoor Air System Control Strategy
  autosize,                               !- Dedicated Outdoor Air Low Setpoint Temperature for Design {C}
  autosize;                               !- Dedicated Outdoor Air High Setpoint Temperature for Design {C}

OS:ZoneHVAC:EquipmentList,
  {b2419e2f-4caa-4315-93c2-24ef612c4d6f}, !- Handle
  Zone HVAC Equipment List 1,             !- Name
  {a969226d-4ad7-49fa-b016-7e8057a5bd9c}, !- Thermal Zone
  ,                                       !- Load Distribution Scheme
  {0895d798-c033-4b29-85d1-0257c4353269}, !- Zone Equipment 1
  2,                                      !- Zone Equipment Cooling Sequence 1
  2,                                      !- Zone Equipment Heating or No-Load Sequence 1
  {88e0ef0c-e53f-410b-8fbd-d91c2bd373ab}, !- Zone Equipment 2
  1,                                      !- Zone Equipment Cooling Sequence 2
  1;                                      !- Zone Equipment Heating or No-Load Sequence 2

OS:ThermalZone,
  {0765d871-4de1-466e-9353-490eb7b9f303}, !- Handle
  garage zone,                            !- Name
  ,                                       !- Multiplier
  ,                                       !- Ceiling Height {m}
  ,                                       !- Volume {m3}
  ,                                       !- Floor Area {m2}
  ,                                       !- Zone Inside Convection Algorithm
  ,                                       !- Zone Outside Convection Algorithm
  ,                                       !- Zone Conditioning Equipment List Name
  {84e582b1-6b83-4648-8840-bf507d840516}, !- Zone Air Inlet Port List
  {dc161be8-6a6c-4ad4-8c02-5b57ae3cdbd2}, !- Zone Air Exhaust Port List
  {95f59b78-d9d0-42c9-8cf0-de848a7fd224}, !- Zone Air Node Name
  {819b2a83-e9d0-4854-842a-a77919dd3787}, !- Zone Return Air Port List
  ,                                       !- Primary Daylighting Control Name
  ,                                       !- Fraction of Zone Controlled by Primary Daylighting Control
  ,                                       !- Secondary Daylighting Control Name
  ,                                       !- Fraction of Zone Controlled by Secondary Daylighting Control
  ,                                       !- Illuminance Map Name
  ,                                       !- Group Rendering Name
  ,                                       !- Thermostat Name
  No;                                     !- Use Ideal Air Loads

OS:Node,
  {a78d4c17-ac7f-4c15-97c4-e25cbce66a2c}, !- Handle
  Node 2,                                 !- Name
  {95f59b78-d9d0-42c9-8cf0-de848a7fd224}, !- Inlet Port
  ;                                       !- Outlet Port

OS:Connection,
  {95f59b78-d9d0-42c9-8cf0-de848a7fd224}, !- Handle
  {7a479748-453f-4ad2-a452-c4cebf4d2196}, !- Name
  {0765d871-4de1-466e-9353-490eb7b9f303}, !- Source Object
  11,                                     !- Outlet Port
  {a78d4c17-ac7f-4c15-97c4-e25cbce66a2c}, !- Target Object
  2;                                      !- Inlet Port

OS:PortList,
  {84e582b1-6b83-4648-8840-bf507d840516}, !- Handle
  {20f7ecff-da8e-4dd6-bf82-76bfa16aaadd}, !- Name
  {0765d871-4de1-466e-9353-490eb7b9f303}; !- HVAC Component

OS:PortList,
  {dc161be8-6a6c-4ad4-8c02-5b57ae3cdbd2}, !- Handle
  {e6e82421-36c6-4a22-ac69-2725f17abaea}, !- Name
  {0765d871-4de1-466e-9353-490eb7b9f303}; !- HVAC Component

OS:PortList,
  {819b2a83-e9d0-4854-842a-a77919dd3787}, !- Handle
  {03ea2bf6-8d18-4476-89ee-5330198d163a}, !- Name
  {0765d871-4de1-466e-9353-490eb7b9f303}; !- HVAC Component

OS:Sizing:Zone,
  {566df1a9-b83b-49b1-9c07-6c29d34aecfc}, !- Handle
  {0765d871-4de1-466e-9353-490eb7b9f303}, !- Zone or ZoneList Name
  SupplyAirTemperature,                   !- Zone Cooling Design Supply Air Temperature Input Method
  14,                                     !- Zone Cooling Design Supply Air Temperature {C}
  11.11,                                  !- Zone Cooling Design Supply Air Temperature Difference {deltaC}
  SupplyAirTemperature,                   !- Zone Heating Design Supply Air Temperature Input Method
  40,                                     !- Zone Heating Design Supply Air Temperature {C}
  11.11,                                  !- Zone Heating Design Supply Air Temperature Difference {deltaC}
  0.0085,                                 !- Zone Cooling Design Supply Air Humidity Ratio {kg-H2O/kg-air}
  0.008,                                  !- Zone Heating Design Supply Air Humidity Ratio {kg-H2O/kg-air}
  ,                                       !- Zone Heating Sizing Factor
  ,                                       !- Zone Cooling Sizing Factor
  DesignDay,                              !- Cooling Design Air Flow Method
  ,                                       !- Cooling Design Air Flow Rate {m3/s}
  ,                                       !- Cooling Minimum Air Flow per Zone Floor Area {m3/s-m2}
  ,                                       !- Cooling Minimum Air Flow {m3/s}
  ,                                       !- Cooling Minimum Air Flow Fraction
  DesignDay,                              !- Heating Design Air Flow Method
  ,                                       !- Heating Design Air Flow Rate {m3/s}
  ,                                       !- Heating Maximum Air Flow per Zone Floor Area {m3/s-m2}
  ,                                       !- Heating Maximum Air Flow {m3/s}
  ,                                       !- Heating Maximum Air Flow Fraction
  ,                                       !- Design Zone Air Distribution Effectiveness in Cooling Mode
  ,                                       !- Design Zone Air Distribution Effectiveness in Heating Mode
  No,                                     !- Account for Dedicated Outdoor Air System
  NeutralSupplyAir,                       !- Dedicated Outdoor Air System Control Strategy
  autosize,                               !- Dedicated Outdoor Air Low Setpoint Temperature for Design {C}
  autosize;                               !- Dedicated Outdoor Air High Setpoint Temperature for Design {C}

OS:ZoneHVAC:EquipmentList,
  {f081b5ae-0d8d-4b25-a5be-584cd9b3cb97}, !- Handle
  Zone HVAC Equipment List 2,             !- Name
  {0765d871-4de1-466e-9353-490eb7b9f303}; !- Thermal Zone

OS:Space,
  {f2a2e327-cc2a-4b95-82e3-c9a35e7c5f6d}, !- Handle
  garage space,                           !- Name
  {67a954a5-c906-4bea-9ad4-fa20be7373f5}, !- Space Type Name
  ,                                       !- Default Construction Set Name
  ,                                       !- Default Schedule Set Name
  -0,                                     !- Direction of Relative North {deg}
  0,                                      !- X Origin {m}
  0,                                      !- Y Origin {m}
  0,                                      !- Z Origin {m}
  ,                                       !- Building Story Name
  {0765d871-4de1-466e-9353-490eb7b9f303}; !- Thermal Zone Name

OS:Surface,
  {22923129-2e8d-4ce8-935d-d5c48b763c57}, !- Handle
  Surface 1,                              !- Name
  Floor,                                  !- Surface Type
  {4b88c22c-32de-4a6a-ae34-ec729b59a914}, !- Construction Name
  {f2a2e327-cc2a-4b95-82e3-c9a35e7c5f6d}, !- Space Name
  Foundation,                             !- Outside Boundary Condition
  {249e719a-2475-42dc-8720-7636ffc72719}, !- Outside Boundary Condition Object
  NoSun,                                  !- Sun Exposure
  NoWind,                                 !- Wind Exposure
  ,                                       !- View Factor to Ground
  ,                                       !- Number of Vertices
  12.4316830995045, -3.6576, 0,           !- X,Y,Z Vertex 1 {m}
  12.4316830995045, 3.6576, 0,            !- X,Y,Z Vertex 2 {m}
  16.0892830995045, 3.6576, 0,            !- X,Y,Z Vertex 3 {m}
  16.0892830995045, -3.6576, 0;           !- X,Y,Z Vertex 4 {m}

OS:Surface,
  {8909f536-bb1b-4e02-9edc-fb3747505b35}, !- Handle
  Surface 2,                              !- Name
  Wall,                                   !- Surface Type
  {6b92137f-24e2-492a-ad49-77fe69e53f5c}, !- Construction Name
  {f2a2e327-cc2a-4b95-82e3-c9a35e7c5f6d}, !- Space Name
  Surface,                                !- Outside Boundary Condition
  {50d339f4-429d-4fd7-b77b-83c9f3c4633b}, !- Outside Boundary Condition Object
  NoSun,                                  !- Sun Exposure
  NoWind,                                 !- Wind Exposure
  ,                                       !- View Factor to Ground
  ,                                       !- Number of Vertices
  12.4316830995045, 3.6576, 2.4384,       !- X,Y,Z Vertex 1 {m}
  12.4316830995045, 3.6576, 0,            !- X,Y,Z Vertex 2 {m}
  12.4316830995045, 0, 0,                 !- X,Y,Z Vertex 3 {m}
  12.4316830995045, 0, 2.4384;            !- X,Y,Z Vertex 4 {m}

OS:Surface,
  {d69fca99-76d2-4d4a-9fc5-ca2de5175cbf}, !- Handle
  Surface 3,                              !- Name
  Wall,                                   !- Surface Type
  {6b92137f-24e2-492a-ad49-77fe69e53f5c}, !- Construction Name
  {f2a2e327-cc2a-4b95-82e3-c9a35e7c5f6d}, !- Space Name
  Surface,                                !- Outside Boundary Condition
  {2f9cb64a-581d-49a3-af3f-c59293ab01c8}, !- Outside Boundary Condition Object
  NoSun,                                  !- Sun Exposure
  NoWind,                                 !- Wind Exposure
  ,                                       !- View Factor to Ground
  ,                                       !- Number of Vertices
  16.0892830995045, 3.6576, 2.4384,       !- X,Y,Z Vertex 1 {m}
  16.0892830995045, 3.6576, 0,            !- X,Y,Z Vertex 2 {m}
  12.4316830995045, 3.6576, 0,            !- X,Y,Z Vertex 3 {m}
  12.4316830995045, 3.6576, 2.4384;       !- X,Y,Z Vertex 4 {m}

OS:Surface,
  {9785afc4-aaf5-4499-816c-6081534e4601}, !- Handle
  Surface 4,                              !- Name
  Wall,                                   !- Surface Type
  {36539000-612f-425f-816d-38bb81a81fe3}, !- Construction Name
  {f2a2e327-cc2a-4b95-82e3-c9a35e7c5f6d}, !- Space Name
  Outdoors,                               !- Outside Boundary Condition
  ,                                       !- Outside Boundary Condition Object
  SunExposed,                             !- Sun Exposure
  WindExposed,                            !- Wind Exposure
  ,                                       !- View Factor to Ground
  ,                                       !- Number of Vertices
  16.0892830995045, -3.6576, 2.4384,      !- X,Y,Z Vertex 1 {m}
  16.0892830995045, -3.6576, 0,           !- X,Y,Z Vertex 2 {m}
  16.0892830995045, 3.6576, 0,            !- X,Y,Z Vertex 3 {m}
  16.0892830995045, 3.6576, 2.4384;       !- X,Y,Z Vertex 4 {m}

OS:Surface,
  {a605f271-7620-46b5-b4ac-f4f66fd75d62}, !- Handle
  Surface 5,                              !- Name
  Wall,                                   !- Surface Type
  {36539000-612f-425f-816d-38bb81a81fe3}, !- Construction Name
  {f2a2e327-cc2a-4b95-82e3-c9a35e7c5f6d}, !- Space Name
  Outdoors,                               !- Outside Boundary Condition
  ,                                       !- Outside Boundary Condition Object
  SunExposed,                             !- Sun Exposure