!- NOTE: Auto-generated from /test/osw_files/SFD_1story_UB_UA_GRG_ACV_FuelFurnace_HPWH.osw

OS:Version,
  {dc772db2-c521-4014-b548-d6b239e00612}, !- Handle
  2.7.0;                                  !- Version Identifier

OS:SimulationControl,
  {b53687a9-37a7-48f1-a923-65eeea7f7216}, !- Handle
  ,                                       !- Do Zone Sizing Calculation
  ,                                       !- Do System Sizing Calculation
  ,                                       !- Do Plant Sizing Calculation
  No;                                     !- Run Simulation for Sizing Periods

OS:Timestep,
  {b02b6c99-6179-4c82-b5f5-c05ed591f0e7}, !- Handle
  6;                                      !- Number of Timesteps per Hour

OS:ShadowCalculation,
  {e5444e3d-0bf3-4f92-814f-05a4b9ba507a}, !- Handle
  20,                                     !- Calculation Frequency
  200;                                    !- Maximum Figures in Shadow Overlap Calculations

OS:SurfaceConvectionAlgorithm:Outside,
  {31c81ee2-b3ab-4c4d-9b09-4c19962069ee}, !- Handle
  DOE-2;                                  !- Algorithm

OS:SurfaceConvectionAlgorithm:Inside,
  {06200c3b-99f4-4f69-b79b-b6a143b1e015}, !- Handle
  TARP;                                   !- Algorithm

OS:ZoneCapacitanceMultiplier:ResearchSpecial,
  {796ef86d-b02b-43e0-bb7f-7db850291901}, !- Handle
  ,                                       !- Temperature Capacity Multiplier
  15,                                     !- Humidity Capacity Multiplier
  ;                                       !- Carbon Dioxide Capacity Multiplier

OS:RunPeriod,
  {25bad5e9-9082-46d3-956f-770b365df93b}, !- Handle
  Run Period 1,                           !- Name
  1,                                      !- Begin Month
  1,                                      !- Begin Day of Month
  12,                                     !- End Month
  31,                                     !- End Day of Month
  ,                                       !- Use Weather File Holidays and Special Days
  ,                                       !- Use Weather File Daylight Saving Period
  ,                                       !- Apply Weekend Holiday Rule
  ,                                       !- Use Weather File Rain Indicators
  ,                                       !- Use Weather File Snow Indicators
  ;                                       !- Number of Times Runperiod to be Repeated

OS:WeatherFile,
  {6eaebb64-1857-4cbc-abff-219ca9b30cf7}, !- Handle
  Denver Intl Ap,                         !- City
  CO,                                     !- State Province Region
  USA,                                    !- Country
  TMY3,                                   !- Data Source
  725650,                                 !- WMO Number
  39.83,                                  !- Latitude {deg}
  -104.65,                                !- Longitude {deg}
  -7,                                     !- Time Zone {hr}
  1650,                                   !- Elevation {m}
  file:../tests/USA_CO_Denver_Intl_AP_725650_TMY3.epw, !- Url
  E23378AA;                               !- Checksum

OS:AdditionalProperties,
  {0248b000-43af-46a4-9416-6a72fdd253fb}, !- Handle
  {6eaebb64-1857-4cbc-abff-219ca9b30cf7}, !- Object Name
  EPWHeaderCity,                          !- Feature Name 1
  String,                                 !- Feature Data Type 1
  Denver Intl Ap,                         !- Feature Value 1
  EPWHeaderState,                         !- Feature Name 2
  String,                                 !- Feature Data Type 2
  CO,                                     !- Feature Value 2
  EPWHeaderCountry,                       !- Feature Name 3
  String,                                 !- Feature Data Type 3
  USA,                                    !- Feature Value 3
  EPWHeaderDataSource,                    !- Feature Name 4
  String,                                 !- Feature Data Type 4
  TMY3,                                   !- Feature Value 4
  EPWHeaderStation,                       !- Feature Name 5
  String,                                 !- Feature Data Type 5
  725650,                                 !- Feature Value 5
  EPWHeaderLatitude,                      !- Feature Name 6
  Double,                                 !- Feature Data Type 6
  39.829999999999998,                     !- Feature Value 6
  EPWHeaderLongitude,                     !- Feature Name 7
  Double,                                 !- Feature Data Type 7
  -104.65000000000001,                    !- Feature Value 7
  EPWHeaderTimezone,                      !- Feature Name 8
  Double,                                 !- Feature Data Type 8
  -7,                                     !- Feature Value 8
  EPWHeaderAltitude,                      !- Feature Name 9
  Double,                                 !- Feature Data Type 9
  5413.3858267716532,                     !- Feature Value 9
  EPWHeaderLocalPressure,                 !- Feature Name 10
  Double,                                 !- Feature Data Type 10
  0.81937567683596546,                    !- Feature Value 10
  EPWHeaderRecordsPerHour,                !- Feature Name 11
  Double,                                 !- Feature Data Type 11
  1,                                      !- Feature Value 11
  EPWDataAnnualAvgDrybulb,                !- Feature Name 12
  Double,                                 !- Feature Data Type 12
  51.575616438356228,                     !- Feature Value 12
  EPWDataAnnualMinDrybulb,                !- Feature Name 13
  Double,                                 !- Feature Data Type 13
  -2.9200000000000017,                    !- Feature Value 13
  EPWDataAnnualMaxDrybulb,                !- Feature Name 14
  Double,                                 !- Feature Data Type 14
  104,                                    !- Feature Value 14
  EPWDataCDD50F,                          !- Feature Name 15
  Double,                                 !- Feature Data Type 15
  3072.2925000000005,                     !- Feature Value 15
  EPWDataCDD65F,                          !- Feature Name 16
  Double,                                 !- Feature Data Type 16
  883.62000000000035,                     !- Feature Value 16
  EPWDataHDD50F,                          !- Feature Name 17
  Double,                                 !- Feature Data Type 17
  2497.1925000000001,                     !- Feature Value 17
  EPWDataHDD65F,                          !- Feature Name 18
  Double,                                 !- Feature Data Type 18
  5783.5200000000013,                     !- Feature Value 18
  EPWDataAnnualAvgWindspeed,              !- Feature Name 19
  Double,                                 !- Feature Data Type 19
  3.9165296803649667,                     !- Feature Value 19
  EPWDataMonthlyAvgDrybulbs,              !- Feature Name 20
  String,                                 !- Feature Data Type 20
  33.4191935483871&#4431.90142857142857&#4443.02620967741937&#4442.48624999999999&#4459.877741935483854&#4473.57574999999997&#4472.07975806451608&#4472.70008064516134&#4466.49200000000006&#4450.079112903225806&#4437.218250000000005&#4434.582177419354835, !- Feature Value 20
  EPWDataGroundMonthlyTemps,              !- Feature Name 21
  String,                                 !- Feature Data Type 21
  44.08306285945173&#4440.89570904991865&#4440.64045432632048&#4442.153016571250646&#4448.225111118704206&#4454.268919273837525&#4459.508577937551024&#4462.82777283423508&#4463.10975667174995&#4460.41014950381947&#4455.304105212311526&#4449.445696474514364, !- Feature Value 21
  EPWDataWSF,                             !- Feature Name 22
  Double,                                 !- Feature Data Type 22
  0.58999999999999997,                    !- Feature Value 22
  EPWDataMonthlyAvgDailyHighDrybulbs,     !- Feature Name 23
  String,                                 !- Feature Data Type 23
  47.41032258064516&#4446.58642857142857&#4455.15032258064517&#4453.708&#4472.80193548387098&#4488.67600000000002&#4486.1858064516129&#4485.87225806451613&#4482.082&#4463.18064516129033&#4448.73400000000001&#4448.87935483870968, !- Feature Value 23
  EPWDataMonthlyAvgDailyLowDrybulbs,      !- Feature Name 24
  String,                                 !- Feature Data Type 24
  19.347741935483874&#4419.856428571428573&#4430.316129032258065&#4431.112&#4447.41612903225806&#4457.901999999999994&#4459.063870967741934&#4460.956774193548384&#4452.352000000000004&#4438.41612903225806&#4427.002000000000002&#4423.02903225806451, !- Feature Value 24
  EPWDesignHeatingDrybulb,                !- Feature Name 25
  Double,                                 !- Feature Data Type 25
  6.8000000000000007,                     !- Feature Value 25
  EPWDesignHeatingWindspeed,              !- Feature Name 26
  Double,                                 !- Feature Data Type 26
  12,                                     !- Feature Value 26
  EPWDesignCoolingDrybulb,                !- Feature Name 27
  Double,                                 !- Feature Data Type 27
  91.760000000000005,                     !- Feature Value 27
  EPWDesignCoolingWetbulb,                !- Feature Name 28
  Double,                                 !- Feature Data Type 28
  60.079999999999998,                     !- Feature Value 28
  EPWDesignCoolingHumidityRatio,          !- Feature Name 29
  Double,                                 !- Feature Data Type 29
  0.006050392196571398,                   !- Feature Value 29
  EPWDesignCoolingWindspeed,              !- Feature Name 30
  Double,                                 !- Feature Data Type 30
  4.2000000000000002,                     !- Feature Value 30
  EPWDesignDailyTemperatureRange,         !- Feature Name 31
  Double,                                 !- Feature Data Type 31
  27.359999999999999,                     !- Feature Value 31
  EPWDesignDehumidDrybulb,                !- Feature Name 32
  Double,                                 !- Feature Data Type 32
  67.280000000000001,                     !- Feature Value 32
  EPWDesignDehumidHumidityRatio,          !- Feature Name 33
  Double,                                 !- Feature Data Type 33
  0.012295426899271008,                   !- Feature Value 33
  EPWDesignCoolingDirectNormal,           !- Feature Name 34
  Double,                                 !- Feature Data Type 34
  985,                                    !- Feature Value 34
  EPWDesignCoolingDiffuseHorizontal,      !- Feature Name 35
  Double,                                 !- Feature Data Type 35
  84;                                     !- Feature Value 35

OS:YearDescription,
  {2aba027b-8ab5-42db-9c0b-54f2dc9c45a4}, !- Handle
  ,                                       !- Calendar Year
  Monday;                                 !- Day of Week for Start Day

OS:Site,
  {6feb03ba-b0d9-4a74-aee5-485a34306551}, !- Handle
  Denver Intl Ap_CO_USA,                  !- Name
  39.83,                                  !- Latitude {deg}
  -104.65,                                !- Longitude {deg}
  -7,                                     !- Time Zone {hr}
  1650,                                   !- Elevation {m}
  Suburbs;                                !- Terrain

OS:ClimateZones,
  {2ac46d34-0176-49ab-8c86-24c453563990}, !- Handle
  ,                                       !- Active Institution
  ,                                       !- Active Year
  ,                                       !- Climate Zone Institution Name 1
  ,                                       !- Climate Zone Document Name 1
  ,                                       !- Climate Zone Document Year 1
  ,                                       !- Climate Zone Value 1
  Building America,                       !- Climate Zone Institution Name 2
  ,                                       !- Climate Zone Document Name 2
  0,                                      !- Climate Zone Document Year 2
  Cold;                                   !- Climate Zone Value 2

OS:Site:WaterMainsTemperature,
  {676e3a2b-a15f-480f-9116-6fbf83bad337}, !- Handle
  Correlation,                            !- Calculation Method
  ,                                       !- Temperature Schedule Name
  10.8753424657535,                       !- Annual Average Outdoor Air Temperature {C}
  23.1524007936508;                       !- Maximum Difference In Monthly Average Outdoor Air Temperatures {deltaC}

OS:RunPeriodControl:DaylightSavingTime,
  {192df6d3-7303-4988-a6ca-941a7950c9b2}, !- Handle
  4/7,                                    !- Start Date
  10/26;                                  !- End Date

OS:Site:GroundTemperature:Deep,
  {a8b6265b-6bf4-402a-8647-66bcbfd75a9e}, !- Handle
  10.8753424657535,                       !- January Deep Ground Temperature {C}
  10.8753424657535,                       !- February Deep Ground Temperature {C}
  10.8753424657535,                       !- March Deep Ground Temperature {C}
  10.8753424657535,                       !- April Deep Ground Temperature {C}
  10.8753424657535,                       !- May Deep Ground Temperature {C}
  10.8753424657535,                       !- June Deep Ground Temperature {C}
  10.8753424657535,                       !- July Deep Ground Temperature {C}
  10.8753424657535,                       !- August Deep Ground Temperature {C}
  10.8753424657535,                       !- September Deep Ground Temperature {C}
  10.8753424657535,                       !- October Deep Ground Temperature {C}
  10.8753424657535,                       !- November Deep Ground Temperature {C}
  10.8753424657535;                       !- December Deep Ground Temperature {C}

OS:ThermalZone,
  {447fca47-3bf9-457d-ad07-d110be4e625c}, !- Handle
  living zone,                            !- Name
  ,                                       !- Multiplier
  ,                                       !- Ceiling Height {m}
  ,                                       !- Volume {m3}
  ,                                       !- Floor Area {m2}
  ,                                       !- Zone Inside Convection Algorithm
  ,                                       !- Zone Outside Convection Algorithm
  ,                                       !- Zone Conditioning Equipment List Name
  {4d3b1a1f-3d1f-475e-86a5-e62089f17e8e}, !- Zone Air Inlet Port List
  {2dc4dc8f-2479-46dc-b830-c32d7fa61a1e}, !- Zone Air Exhaust Port List
  {b9ca342b-55c0-4804-a7c5-51ae8789a9e0}, !- Zone Air Node Name
  {d98ee76e-0cc4-46c0-8500-9d1941f4ba1a}, !- Zone Return Air Port List
  ,                                       !- Primary Daylighting Control Name
  ,                                       !- Fraction of Zone Controlled by Primary Daylighting Control
  ,                                       !- Secondary Daylighting Control Name
  ,                                       !- Fraction of Zone Controlled by Secondary Daylighting Control
  ,                                       !- Illuminance Map Name
  ,                                       !- Group Rendering Name
  {853dc7d4-1987-4162-a6bb-df3fb8d0cf20}, !- Thermostat Name
  No;                                     !- Use Ideal Air Loads

OS:Node,
  {0392a2a1-b15b-4ff3-ae99-a1cb6965a8b4}, !- Handle
  Node 1,                                 !- Name
  {b9ca342b-55c0-4804-a7c5-51ae8789a9e0}, !- Inlet Port
  ;                                       !- Outlet Port

OS:Connection,
  {b9ca342b-55c0-4804-a7c5-51ae8789a9e0}, !- Handle
  {77566128-4006-49b2-b82f-cd57085de768}, !- Name
  {447fca47-3bf9-457d-ad07-d110be4e625c}, !- Source Object
  11,                                     !- Outlet Port
  {0392a2a1-b15b-4ff3-ae99-a1cb6965a8b4}, !- Target Object
  2;                                      !- Inlet Port

OS:PortList,
  {4d3b1a1f-3d1f-475e-86a5-e62089f17e8e}, !- Handle
  {f27e382d-2647-4aa3-a085-fc98db9e5be7}, !- Name
  {447fca47-3bf9-457d-ad07-d110be4e625c}, !- HVAC Component
  {5cfa5402-6fe3-47a0-b63d-24942ca4bfa6}; !- Port 1

OS:PortList,
  {2dc4dc8f-2479-46dc-b830-c32d7fa61a1e}, !- Handle
  {0af5bdca-a5cd-4dde-a2cd-9b9959805c19}, !- Name
  {447fca47-3bf9-457d-ad07-d110be4e625c}; !- HVAC Component

OS:PortList,
  {d98ee76e-0cc4-46c0-8500-9d1941f4ba1a}, !- Handle
  {40d0d9f2-d273-4319-b14a-f622805eab76}, !- Name
  {447fca47-3bf9-457d-ad07-d110be4e625c}, !- HVAC Component
  {b1a97f48-13a4-4d4c-b19d-8bbedf0b41df}; !- Port 1

OS:Sizing:Zone,
  {5625e9d1-ff4d-4b7c-8480-3f6d285c76f9}, !- Handle
  {447fca47-3bf9-457d-ad07-d110be4e625c}, !- Zone or ZoneList Name
  SupplyAirTemperature,                   !- Zone Cooling Design Supply Air Temperature Input Method
  14,                                     !- Zone Cooling Design Supply Air Temperature {C}
  11.11,                                  !- Zone Cooling Design Supply Air Temperature Difference {deltaC}
  SupplyAirTemperature,                   !- Zone Heating Design Supply Air Temperature Input Method
  40,                                     !- Zone Heating Design Supply Air Temperature {C}
  11.11,                                  !- Zone Heating Design Supply Air Temperature Difference {deltaC}
  0.0085,                                 !- Zone Cooling Design Supply Air Humidity Ratio {kg-H2O/kg-air}
  0.008,                                  !- Zone Heating Design Supply Air Humidity Ratio {kg-H2O/kg-air}
  ,                                       !- Zone Heating Sizing Factor
  ,                                       !- Zone Cooling Sizing Factor
  DesignDay,                              !- Cooling Design Air Flow Method
  ,                                       !- Cooling Design Air Flow Rate {m3/s}
  ,                                       !- Cooling Minimum Air Flow per Zone Floor Area {m3/s-m2}
  ,                                       !- Cooling Minimum Air Flow {m3/s}
  ,                                       !- Cooling Minimum Air Flow Fraction
  DesignDay,                              !- Heating Design Air Flow Method
  ,                                       !- Heating Design Air Flow Rate {m3/s}
  ,                                       !- Heating Maximum Air Flow per Zone Floor Area {m3/s-m2}
  ,                                       !- Heating Maximum Air Flow {m3/s}
  ,                                       !- Heating Maximum Air Flow Fraction
  ,                                       !- Design Zone Air Distribution Effectiveness in Cooling Mode
  ,                                       !- Design Zone Air Distribution Effectiveness in Heating Mode
  No,                                     !- Account for Dedicated Outdoor Air System
  NeutralSupplyAir,                       !- Dedicated Outdoor Air System Control Strategy
  autosize,                               !- Dedicated Outdoor Air Low Setpoint Temperature for Design {C}
  autosize;                               !- Dedicated Outdoor Air High Setpoint Temperature for Design {C}

OS:ZoneHVAC:EquipmentList,
  {66c7107c-94f0-4125-ac06-4b165631c3ed}, !- Handle
  Zone HVAC Equipment List 1,             !- Name
  {447fca47-3bf9-457d-ad07-d110be4e625c}, !- Thermal Zone
  ,                                       !- Load Distribution Scheme
  {76800a15-7442-4eba-acda-af2ad42817d0}, !- Zone Equipment 1
  1,                                      !- Zone Equipment Cooling Sequence 1
  1;                                      !- Zone Equipment Heating or No-Load Sequence 1

OS:ThermalZone,
  {d7d929e0-5735-4f25-b371-05dec799e86c}, !- Handle
  garage zone,                            !- Name
  ,                                       !- Multiplier
  ,                                       !- Ceiling Height {m}
  ,                                       !- Volume {m3}
  ,                                       !- Floor Area {m2}
  ,                                       !- Zone Inside Convection Algorithm
  ,                                       !- Zone Outside Convection Algorithm
  ,                                       !- Zone Conditioning Equipment List Name
  {1a653036-f161-46c2-8e29-4fb76f229a21}, !- Zone Air Inlet Port List
  {2f1be043-ed47-4a03-8059-b4e1c55a35cd}, !- Zone Air Exhaust Port List
  {00e19755-37e6-4672-9c4d-81a960a53ee7}, !- Zone Air Node Name
  {eedbd851-1375-4314-892e-3569354cddc9}, !- Zone Return Air Port List
  ,                                       !- Primary Daylighting Control Name
  ,                                       !- Fraction of Zone Controlled by Primary Daylighting Control
  ,                                       !- Secondary Daylighting Control Name
  ,                                       !- Fraction of Zone Controlled by Secondary Daylighting Control
  ,                                       !- Illuminance Map Name
  ,                                       !- Group Rendering Name
  ,                                       !- Thermostat Name
  No;                                     !- Use Ideal Air Loads

OS:Node,
  {1e4fb7aa-9496-42fc-9cf9-ae7bf56f9a4d}, !- Handle
  Node 2,                                 !- Name
  {00e19755-37e6-4672-9c4d-81a960a53ee7}, !- Inlet Port
  ;                                       !- Outlet Port

OS:Connection,
  {00e19755-37e6-4672-9c4d-81a960a53ee7}, !- Handle
  {197cc386-3f65-43de-93a6-96b81acd4b31}, !- Name
  {d7d929e0-5735-4f25-b371-05dec799e86c}, !- Source Object
  11,                                     !- Outlet Port
  {1e4fb7aa-9496-42fc-9cf9-ae7bf56f9a4d}, !- Target Object
  2;                                      !- Inlet Port

OS:PortList,
  {1a653036-f161-46c2-8e29-4fb76f229a21}, !- Handle
  {fce7088e-d2a0-442b-82f5-3067e2387aac}, !- Name
  {d7d929e0-5735-4f25-b371-05dec799e86c}; !- HVAC Component

OS:PortList,
  {2f1be043-ed47-4a03-8059-b4e1c55a35cd}, !- Handle
  {338c1093-f1df-46fb-be55-df802cff6425}, !- Name
  {d7d929e0-5735-4f25-b371-05dec799e86c}; !- HVAC Component

OS:PortList,
  {eedbd851-1375-4314-892e-3569354cddc9}, !- Handle
  {a80fd19a-1d6f-4d83-b857-4470be9841c9}, !- Name
  {d7d929e0-5735-4f25-b371-05dec799e86c}; !- HVAC Component

OS:Sizing:Zone,
  {3368ee86-74ca-4fb7-b704-a203d31e0200}, !- Handle
  {d7d929e0-5735-4f25-b371-05dec799e86c}, !- Zone or ZoneList Name
  SupplyAirTemperature,                   !- Zone Cooling Design Supply Air Temperature Input Method
  14,                                     !- Zone Cooling Design Supply Air Temperature {C}
  11.11,                                  !- Zone Cooling Design Supply Air Temperature Difference {deltaC}
  SupplyAirTemperature,                   !- Zone Heating Design Supply Air Temperature Input Method
  40,                                     !- Zone Heating Design Supply Air Temperature {C}
  11.11,                                  !- Zone Heating Design Supply Air Temperature Difference {deltaC}
  0.0085,                                 !- Zone Cooling Design Supply Air Humidity Ratio {kg-H2O/kg-air}
  0.008,                                  !- Zone Heating Design Supply Air Humidity Ratio {kg-H2O/kg-air}
  ,                                       !- Zone Heating Sizing Factor
  ,                                       !- Zone Cooling Sizing Factor
  DesignDay,                              !- Cooling Design Air Flow Method
  ,                                       !- Cooling Design Air Flow Rate {m3/s}
  ,                                       !- Cooling Minimum Air Flow per Zone Floor Area {m3/s-m2}
  ,                                       !- Cooling Minimum Air Flow {m3/s}
  ,                                       !- Cooling Minimum Air Flow Fraction
  DesignDay,                              !- Heating Design Air Flow Method
  ,                                       !- Heating Design Air Flow Rate {m3/s}
  ,                                       !- Heating Maximum Air Flow per Zone Floor Area {m3/s-m2}
  ,                                       !- Heating Maximum Air Flow {m3/s}
  ,                                       !- Heating Maximum Air Flow Fraction
  ,                                       !- Design Zone Air Distribution Effectiveness in Cooling Mode
  ,                                       !- Design Zone Air Distribution Effectiveness in Heating Mode
  No,                                     !- Account for Dedicated Outdoor Air System
  NeutralSupplyAir,                       !- Dedicated Outdoor Air System Control Strategy
  autosize,                               !- Dedicated Outdoor Air Low Setpoint Temperature for Design {C}
  autosize;                               !- Dedicated Outdoor Air High Setpoint Temperature for Design {C}

OS:ZoneHVAC:EquipmentList,
  {aea9c31d-68f2-44ed-be7e-e081dfcee22a}, !- Handle
  Zone HVAC Equipment List 2,             !- Name
  {d7d929e0-5735-4f25-b371-05dec799e86c}; !- Thermal Zone

OS:Space,
  {cc1d668c-6031-4442-b31e-94104f7f8202}, !- Handle
  garage space,                           !- Name
  {1d4cfd58-725a-4987-b45f-3e44c7c3a5e1}, !- Space Type Name
  ,                                       !- Default Construction Set Name
  ,                                       !- Default Schedule Set Name
  -0,                                     !- Direction of Relative North {deg}
  0,                                      !- X Origin {m}
  0,                                      !- Y Origin {m}
  0,                                      !- Z Origin {m}
  ,                                       !- Building Story Name
  {d7d929e0-5735-4f25-b371-05dec799e86c}; !- Thermal Zone Name

OS:Surface,
  {b37a9e50-6556-459d-bb55-db2861d4207f}, !- Handle
  Surface 1,                              !- Name
  Floor,                                  !- Surface Type
  {c5d23c8f-1ad2-4649-8edd-ee92ed0e275f}, !- Construction Name
  {cc1d668c-6031-4442-b31e-94104f7f8202}, !- Space Name
  Foundation,                             !- Outside Boundary Condition
  {367d9d9c-0bd7-4044-a600-57d46cda177a}, !- Outside Boundary Condition Object
  NoSun,                                  !- Sun Exposure
  NoWind,                                 !- Wind Exposure
  ,                                       !- View Factor to Ground
  ,                                       !- Number of Vertices
  24.209855785701, -3.6576, 0,            !- X,Y,Z Vertex 1 {m}
  24.209855785701, 3.6576, 0,             !- X,Y,Z Vertex 2 {m}
  27.867455785701, 3.6576, 0,             !- X,Y,Z Vertex 3 {m}
  27.867455785701, -3.6576, 0;            !- X,Y,Z Vertex 4 {m}

OS:Surface,
  {36ba9489-696a-451b-9ea2-00433e1b0440}, !- Handle
  Surface 2,                              !- Name
  Wall,                                   !- Surface Type
  {800dad68-fd87-422b-8d17-31ebdf5a7bd2}, !- Construction Name
  {cc1d668c-6031-4442-b31e-94104f7f8202}, !- Space Name
  Surface,                                !- Outside Boundary Condition
  {cc492e70-1a1d-45b4-ae31-3a7b8b6e0756}, !- Outside Boundary Condition Object
  NoSun,                                  !- Sun Exposure
  NoWind,                                 !- Wind Exposure
  ,                                       !- View Factor to Ground
  ,                                       !- Number of Vertices
  24.209855785701, 3.6576, 2.4384,        !- X,Y,Z Vertex 1 {m}
  24.209855785701, 3.6576, 0,             !- X,Y,Z Vertex 2 {m}
  24.209855785701, 0, 0,                  !- X,Y,Z Vertex 3 {m}
  24.209855785701, 0, 2.4384;             !- X,Y,Z Vertex 4 {m}

OS:Surface,
  {8a420b14-bff0-4bb9-8379-e7dfc3b68523}, !- Handle
  Surface 3,                              !- Name
  Wall,                                   !- Surface Type
  {800dad68-fd87-422b-8d17-31ebdf5a7bd2}, !- Construction Name
  {cc1d668c-6031-4442-b31e-94104f7f8202}, !- Space Name
  Surface,                                !- Outside Boundary Condition
  {1617106c-c176-47ac-b2b4-22326a601e0b}, !- Outside Boundary Condition Object
  NoSun,                                  !- Sun Exposure
  NoWind,                                 !- Wind Exposure
  ,                                       !- View Factor to Ground
  ,                                       !- Number of Vertices
  27.867455785701, 3.6576, 2.4384,        !- X,Y,Z Vertex 1 {m}
  27.867455785701, 3.6576, 0,             !- X,Y,Z Vertex 2 {m}
  24.209855785701, 3.6576, 0,             !- X,Y,Z Vertex 3 {m}
  24.209855785701, 3.6576, 2.4384;        !- X,Y,Z Vertex 4 {m}

OS:Surface,
  {627a2eaf-5d4f-47e9-8a0e-9ebbd1e9ea79}, !- Handle
  Surface 4,                              !- Name
  Wall,                                   !- Surface Type
  {39d647b3-c41e-4cef-859d-12039857a376}, !- Construction Name
  {cc1d668c-6031-4442-b31e-94104f7f8202}, !- Space Name
  Outdoors,                               !- Outside Boundary Condition
  ,                                       !- Outside Boundary Condition Object
  SunExposed,                             !- Sun Exposure
  WindExposed,                            !- Wind Exposure
  ,                                       !- View Factor to Ground
  ,                                       !- Number of Vertices
  27.867455785701, -3.6576, 2.4384,       !- X,Y,Z Vertex 1 {m}
  27.867455785701, -3.6576, 0,            !- X,Y,Z Vertex 2 {m}
  27.867455785701, 3.6576, 0,             !- X,Y,Z Vertex 3 {m}
  27.867455785701, 3.6576, 2.4384;        !- X,Y,Z Vertex 4 {m}

OS:Surface,
  {a58a532b-2942-4625-acd9-88b3ee3a0012}, !- Handle
  Surface 5,                              !- Name
  Wall,                                   !- Surface Type
  {39d647b3-c41e-4cef-859d-12039857a376}, !- Construction Name
  {cc1d668c-6031-4442-b31e-94104f7f8202}, !- Space Name
  Outdoors,                               !- Outside Boundary Condition
  ,                                       !- Outside Boundary Condition Object
  SunExposed,                             !- Sun Exposure
  WindExposed,                            !- Wind Exposure
  ,                                       !- View Factor to Ground
  ,                                       !- Number of Vertices